version 3
run General-0-20241210-00:40:32-25612
attr configname General
attr datetime 20241210-00:40:32
attr datetimef 20241210-004032
attr experiment General
attr inifile omnetpp.ini
attr iterationvars ""
attr iterationvarsd ""
attr iterationvarsf ""
attr measurement ""
attr network Aodvscratch
attr processid 25612
attr repetition 0
attr replication #0
attr resultdir results
attr runnumber 0
attr seedset 0
config image-path ../../../../../inet-4.5.4-src/inet4.5/images
config network Aodvscratch
config seed-0-mt 4
config **.wlan[*].typename AckingWirelessInterface
config **.wlan[*].bitrate 2Mbps
config **.wlan[*].mac.headerLength 20B
config **.wlan[*].radio.typename UnitDiskRadio
config **.wlan[*].radio.transmitter.headerLength 96b
config **.wlan[*].radio.transmitter.communicationRange 400m
config **.wlan[*].radio.transmitter.interferenceRange 0m
config **.wlan[*].radio.transmitter.detectionRange 0m
config **.wlan[*].radio.receiver.ignoreInterference true
config *.n 7
config **.mobility.initFromDisplayString false
config **.nodoMovil[*].mobility.typename MassMobility
config **.nodoMovil[*].mobility.speed 1mps
config **.mobility.constraintAreaMinZ 0m
config **.mobility.constraintAreaMaxZ 0m
config **.mobility.constraintAreaMinX 0m
config **.mobility.constraintAreaMinY 0m
config **.mobility.constraintAreaMaxX 1200m
config **.mobility.constraintAreaMaxY 600m
config **.nodoMovil[*].mobility.changeInterval "normal(5s, 0.1s)"
config **.nodoMovil[*].mobility.changeAngleBy "normal(0deg, 30deg)"
config **.nodoFijo1.mobility.initialX 0m
config **.nodoFijo1.mobility.initialY 300m
config **.nodoFijo2.mobility.initialX 1200m
config **.nodoFijo2.mobility.initialY 300m
config **.dataLinkVisualizer.displayLinks true
config **.nodoMovil*.wlan[*].radio.displayCommunicationRange true
config **.networkRouteVisualizer.displayRoutes true

par Aodvscratch.radioMedium.propagation typename "\"inet.physicallayer.wireless.common.propagation.ConstantSpeedPropagation\""
par Aodvscratch.radioMedium.propagation propagationSpeed 2.99792e+08mps
attr unit mps
par Aodvscratch.radioMedium.propagation ignoreMovementDuringTransmission true
par Aodvscratch.radioMedium.propagation ignoreMovementDuringPropagation true
par Aodvscratch.radioMedium.propagation ignoreMovementDuringReception true
scalar Aodvscratch.radioMedium.propagation "Arrival computation count" 0
par Aodvscratch.radioMedium.analogModel typename "\"inet.physicallayer.wireless.unitdisk.UnitDiskAnalogModel\""
par Aodvscratch.radioMedium.pathLoss typename "\"inet.physicallayer.wireless.common.pathloss.FreeSpacePathLoss\""
par Aodvscratch.radioMedium.pathLoss alpha 2
par Aodvscratch.radioMedium.pathLoss systemLoss 0dB
attr unit dB
par Aodvscratch.radioMedium.mediumLimitCache typename "\"inet.physicallayer.wireless.common.medium.MediumLimitCache\""
par Aodvscratch.radioMedium.mediumLimitCache centerFrequency "nan Hz"
attr unit Hz
par Aodvscratch.radioMedium.mediumLimitCache maxSpeed "nan mps"
attr unit mps
par Aodvscratch.radioMedium.mediumLimitCache maxTransmissionPower "nan W"
attr unit W
par Aodvscratch.radioMedium.mediumLimitCache minInterferencePower "nan dBm"
attr unit dBm
par Aodvscratch.radioMedium.mediumLimitCache minReceptionPower "nan dBm"
attr unit dBm
par Aodvscratch.radioMedium.mediumLimitCache maxAntennaGain 0dB
attr unit dB
par Aodvscratch.radioMedium.mediumLimitCache minInterferenceTime 1e-12s
attr unit s
par Aodvscratch.radioMedium.mediumLimitCache maxTransmissionDuration 0.01s
attr unit s
par Aodvscratch.radioMedium.mediumLimitCache maxCommunicationRange "nan m"
attr unit m
par Aodvscratch.radioMedium.mediumLimitCache maxInterferenceRange "nan m"
attr unit m
par Aodvscratch.radioMedium.communicationCache typename "\"inet.physicallayer.wireless.common.communicationcache.VectorCommunicationCache\""
par Aodvscratch.radioMedium typename "\"inet.physicallayer.wireless.unitdisk.UnitDiskRadioMedium\""
par Aodvscratch.radioMedium physicalEnvironmentModule "\"physicalEnvironment\""
par Aodvscratch.radioMedium signalAnalogRepresentation "\"unitDisk\""
attr enum unitDisk,scalar,dimensional
par Aodvscratch.radioMedium rangeFilter "\"\""
par Aodvscratch.radioMedium radioModeFilter false
par Aodvscratch.radioMedium listeningFilter false
par Aodvscratch.radioMedium macAddressFilter false
par Aodvscratch.radioMedium recordTransmissionLog false
par Aodvscratch.radioMedium recordReceptionLog false
scalar Aodvscratch.radioMedium "transmission count" 0
scalar Aodvscratch.radioMedium "signal send count" 0
scalar Aodvscratch.radioMedium "reception computation count" 0
scalar Aodvscratch.radioMedium "interference computation count" 18
scalar Aodvscratch.radioMedium "reception decision computation count" 0
scalar Aodvscratch.radioMedium "listening decision computation count" 18
scalar Aodvscratch.radioMedium "reception cache hit" nan
attr unit %
scalar Aodvscratch.radioMedium "interference cache hit" nan
attr unit %
scalar Aodvscratch.radioMedium "noise cache hit" nan
attr unit %
scalar Aodvscratch.radioMedium "snir cache hit" nan
attr unit %
scalar Aodvscratch.radioMedium "reception decision cache hit" nan
attr unit %
scalar Aodvscratch.radioMedium "reception result cache hit" nan
attr unit %
par Aodvscratch.visualizer.sceneVisualizer typename "\"inet.visualizer.canvas.scene.SceneCanvasVisualizer\""
par Aodvscratch.visualizer.sceneVisualizer visualizationTargetModule "\"^.^\""
par Aodvscratch.visualizer.sceneVisualizer visualizationSubjectModule "\"^.^\""
par Aodvscratch.visualizer.sceneVisualizer tags "\"\""
par Aodvscratch.visualizer.sceneVisualizer physicalEnvironmentModule "\"physicalEnvironment\""
par Aodvscratch.visualizer.sceneVisualizer networkNodeVisualizerModule "\"^.networkNodeVisualizer\""
par Aodvscratch.visualizer.sceneVisualizer axisLength "nan m"
attr mutable ""
attr unit m
par Aodvscratch.visualizer.sceneVisualizer animationSpeed 0
par Aodvscratch.visualizer.sceneVisualizer sceneMinX "nan m"
attr unit m
par Aodvscratch.visualizer.sceneVisualizer sceneMinY "nan m"
attr unit m
par Aodvscratch.visualizer.sceneVisualizer sceneMinZ "nan m"
attr unit m
par Aodvscratch.visualizer.sceneVisualizer sceneMaxX "nan m"
attr unit m
par Aodvscratch.visualizer.sceneVisualizer sceneMaxY "nan m"
attr unit m
par Aodvscratch.visualizer.sceneVisualizer sceneMaxZ "nan m"
attr unit m
par Aodvscratch.visualizer.sceneVisualizer zIndex 0
par Aodvscratch.visualizer.sceneVisualizer viewAngle "\"x right y down z out\""
attr mutable ""
par Aodvscratch.visualizer.sceneVisualizer viewScale "\"1 1\""
attr mutable ""
par Aodvscratch.visualizer.sceneVisualizer viewTranslation "\"0 0\""
attr mutable ""
par Aodvscratch.visualizer.sceneVisualizer descriptionFigure "\"\""
par Aodvscratch.visualizer.physicalEnvironmentVisualizer typename "\"inet.visualizer.canvas.environment.PhysicalEnvironmentCanvasVisualizer\""
par Aodvscratch.visualizer.physicalEnvironmentVisualizer visualizationTargetModule "\"^.^\""
par Aodvscratch.visualizer.physicalEnvironmentVisualizer visualizationSubjectModule "\"^.^\""
par Aodvscratch.visualizer.physicalEnvironmentVisualizer tags "\"\""
par Aodvscratch.visualizer.physicalEnvironmentVisualizer physicalEnvironmentModule "\"physicalEnvironment\""
par Aodvscratch.visualizer.physicalEnvironmentVisualizer displayObjects true
par Aodvscratch.visualizer.physicalEnvironmentVisualizer zIndex 0
par Aodvscratch.visualizer.networkNodeVisualizer typename "\"inet.visualizer.canvas.scene.NetworkNodeCanvasVisualizer\""
par Aodvscratch.visualizer.networkNodeVisualizer visualizationTargetModule "\"^.^\""
par Aodvscratch.visualizer.networkNodeVisualizer visualizationSubjectModule "\"^.^\""
par Aodvscratch.visualizer.networkNodeVisualizer tags "\"\""
par Aodvscratch.visualizer.networkNodeVisualizer nodeFilter "\"*\""
attr mutable ""
par Aodvscratch.visualizer.networkNodeVisualizer annotationSpacing 4
par Aodvscratch.visualizer.networkNodeVisualizer placementPenalty 10
par Aodvscratch.visualizer.networkNodeVisualizer zIndex 0
par Aodvscratch.visualizer.networkConnectionVisualizer typename "\"inet.visualizer.canvas.scene.NetworkConnectionCanvasVisualizer\""
par Aodvscratch.visualizer.networkConnectionVisualizer visualizationTargetModule "\"^.^\""
par Aodvscratch.visualizer.networkConnectionVisualizer visualizationSubjectModule "\"^.^\""
par Aodvscratch.visualizer.networkConnectionVisualizer tags "\"\""
par Aodvscratch.visualizer.networkConnectionVisualizer displayNetworkConnections true
par Aodvscratch.visualizer.networkConnectionVisualizer nodeFilter "\"\""
attr mutable ""
par Aodvscratch.visualizer.networkConnectionVisualizer lineColor "\"black\""
par Aodvscratch.visualizer.networkConnectionVisualizer lineStyle "\"solid\""
par Aodvscratch.visualizer.networkConnectionVisualizer lineWidth 1
par Aodvscratch.visualizer.networkConnectionVisualizer zIndex 0
par Aodvscratch.visualizer.mobilityVisualizer typename "\"inet.visualizer.canvas.mobility.MobilityCanvasVisualizer\""
par Aodvscratch.visualizer.mobilityVisualizer visualizationTargetModule "\"^.^\""
par Aodvscratch.visualizer.mobilityVisualizer visualizationSubjectModule "\"^.^\""
par Aodvscratch.visualizer.mobilityVisualizer tags "\"\""
par Aodvscratch.visualizer.mobilityVisualizer networkNodeVisualizerModule "\"^.networkNodeVisualizer\""
par Aodvscratch.visualizer.mobilityVisualizer displayMobility true
par Aodvscratch.visualizer.mobilityVisualizer animationSpeed 0
par Aodvscratch.visualizer.mobilityVisualizer moduleFilter "\"**.mobility\""
attr mutable ""
par Aodvscratch.visualizer.mobilityVisualizer displayPositions false
par Aodvscratch.visualizer.mobilityVisualizer positionCircleRadius 4
par Aodvscratch.visualizer.mobilityVisualizer positionCircleLineWidth 1
par Aodvscratch.visualizer.mobilityVisualizer positionCircleLineColor "\"dark\""
par Aodvscratch.visualizer.mobilityVisualizer positionCircleFillColor "\"dark\""
par Aodvscratch.visualizer.mobilityVisualizer displayOrientations false
par Aodvscratch.visualizer.mobilityVisualizer orientationPieRadius 32
par Aodvscratch.visualizer.mobilityVisualizer orientationPieSize 0.2
par Aodvscratch.visualizer.mobilityVisualizer orientationPieOpacity 0.25
par Aodvscratch.visualizer.mobilityVisualizer orientationLineColor "\"black\""
par Aodvscratch.visualizer.mobilityVisualizer orientationLineStyle "\"solid\""
par Aodvscratch.visualizer.mobilityVisualizer orientationLineWidth 1
par Aodvscratch.visualizer.mobilityVisualizer orientationFillColor "\"blue\""
par Aodvscratch.visualizer.mobilityVisualizer displayVelocities false
par Aodvscratch.visualizer.mobilityVisualizer velocityArrowScale 1
par Aodvscratch.visualizer.mobilityVisualizer velocityLineColor "\"black\""
par Aodvscratch.visualizer.mobilityVisualizer velocityLineStyle "\"solid\""
par Aodvscratch.visualizer.mobilityVisualizer velocityLineWidth 1
par Aodvscratch.visualizer.mobilityVisualizer displayMovementTrails false
par Aodvscratch.visualizer.mobilityVisualizer movementTrailLineColor "\"dark\""
par Aodvscratch.visualizer.mobilityVisualizer movementTrailLineStyle "\"solid\""
par Aodvscratch.visualizer.mobilityVisualizer movementTrailLineWidth 1
par Aodvscratch.visualizer.mobilityVisualizer trailLength 100
par Aodvscratch.visualizer.mobilityVisualizer zIndex 0
par Aodvscratch.visualizer.statisticVisualizer typename "\"inet.visualizer.canvas.common.StatisticCanvasVisualizer\""
par Aodvscratch.visualizer.statisticVisualizer visualizationTargetModule "\"^.^\""
par Aodvscratch.visualizer.statisticVisualizer visualizationSubjectModule "\"^.^\""
par Aodvscratch.visualizer.statisticVisualizer tags "\"\""
par Aodvscratch.visualizer.statisticVisualizer networkNodeVisualizerModule "\"^.networkNodeVisualizer\""
par Aodvscratch.visualizer.statisticVisualizer displayStatistics true
par Aodvscratch.visualizer.statisticVisualizer signalName "\"\""
par Aodvscratch.visualizer.statisticVisualizer statisticName "\"\""
par Aodvscratch.visualizer.statisticVisualizer statisticUnit "\"\""
par Aodvscratch.visualizer.statisticVisualizer statisticExpression "\"\""
par Aodvscratch.visualizer.statisticVisualizer sourceFilter "\"**\""
attr mutable ""
par Aodvscratch.visualizer.statisticVisualizer format "\"%n: %v %u\""
attr mutable ""
par Aodvscratch.visualizer.statisticVisualizer unit "\"\""
par Aodvscratch.visualizer.statisticVisualizer font "\"<default>\""
par Aodvscratch.visualizer.statisticVisualizer textColor "\"black\""
par Aodvscratch.visualizer.statisticVisualizer backgroundColor "\"white\""
par Aodvscratch.visualizer.statisticVisualizer opacity 1
par Aodvscratch.visualizer.statisticVisualizer placementHint "\"top\""
par Aodvscratch.visualizer.statisticVisualizer placementPriority 0
par Aodvscratch.visualizer.statisticVisualizer zIndex 10
par Aodvscratch.visualizer.statisticVisualizer propertyName "\"\""
par Aodvscratch.visualizer.statisticVisualizer propertyIndex "\"\""
par Aodvscratch.visualizer.infoVisualizer typename "\"inet.visualizer.canvas.common.InfoCanvasVisualizer\""
par Aodvscratch.visualizer.infoVisualizer visualizationTargetModule "\"^.^\""
par Aodvscratch.visualizer.infoVisualizer visualizationSubjectModule "\"^.^\""
par Aodvscratch.visualizer.infoVisualizer tags "\"\""
par Aodvscratch.visualizer.infoVisualizer networkNodeVisualizerModule "\"^.networkNodeVisualizer\""
par Aodvscratch.visualizer.infoVisualizer displayInfos true
par Aodvscratch.visualizer.infoVisualizer modules "\"\""
attr mutable ""
par Aodvscratch.visualizer.infoVisualizer format "\"%t\""
attr mutable ""
par Aodvscratch.visualizer.infoVisualizer font "\"<default>\""
par Aodvscratch.visualizer.infoVisualizer textColor "\"black\""
par Aodvscratch.visualizer.infoVisualizer backgroundColor "\"white\""
par Aodvscratch.visualizer.infoVisualizer opacity 1
par Aodvscratch.visualizer.infoVisualizer placementHint "\"top\""
par Aodvscratch.visualizer.infoVisualizer placementPriority 0
par Aodvscratch.visualizer.infoVisualizer zIndex 10
par Aodvscratch.visualizer.energyStorageVisualizer typename "\"inet.visualizer.canvas.power.EnergyStorageCanvasVisualizer\""
par Aodvscratch.visualizer.energyStorageVisualizer visualizationTargetModule "\"^.^\""
par Aodvscratch.visualizer.energyStorageVisualizer visualizationSubjectModule "\"^.^\""
par Aodvscratch.visualizer.energyStorageVisualizer tags "\"\""
par Aodvscratch.visualizer.energyStorageVisualizer networkNodeVisualizerModule "\"^.networkNodeVisualizer\""
par Aodvscratch.visualizer.energyStorageVisualizer displayEnergyStorages false
par Aodvscratch.visualizer.energyStorageVisualizer energyStorageFilter "\"**\""
par Aodvscratch.visualizer.energyStorageVisualizer color "\"green\""
par Aodvscratch.visualizer.energyStorageVisualizer width 8
par Aodvscratch.visualizer.energyStorageVisualizer height 24
par Aodvscratch.visualizer.energyStorageVisualizer spacing 2
par Aodvscratch.visualizer.energyStorageVisualizer placementHint "\"right\""
par Aodvscratch.visualizer.energyStorageVisualizer placementPriority 0
par Aodvscratch.visualizer.energyStorageVisualizer zIndex 10
par Aodvscratch.visualizer.mediumVisualizer typename "\"inet.visualizer.canvas.physicallayer.MediumCanvasVisualizer\""
par Aodvscratch.visualizer.mediumVisualizer visualizationTargetModule "\"^.^\""
par Aodvscratch.visualizer.mediumVisualizer visualizationSubjectModule "\"^.^\""
par Aodvscratch.visualizer.mediumVisualizer tags "\"\""
par Aodvscratch.visualizer.mediumVisualizer mediumModule "\"radioMedium\""
par Aodvscratch.visualizer.mediumVisualizer networkNodeVisualizerModule "\"^.networkNodeVisualizer\""
par Aodvscratch.visualizer.mediumVisualizer nodeFilter "\"*\""
attr mutable ""
par Aodvscratch.visualizer.mediumVisualizer interfaceFilter "\"*\""
attr mutable ""
par Aodvscratch.visualizer.mediumVisualizer packetFilter "(omnetpp::cValueHolder)holder: \"*\""
attr mutable ""
par Aodvscratch.visualizer.mediumVisualizer displaySignals false
par Aodvscratch.visualizer.mediumVisualizer signalColor "\"dark\""
par Aodvscratch.visualizer.mediumVisualizer signalPropagationAnimationSpeed "nan "
attr mutable ""
par Aodvscratch.visualizer.mediumVisualizer signalPropagationAnimationTime 1s
attr unit s
par Aodvscratch.visualizer.mediumVisualizer signalPropagationAdditionalTime 0s
attr unit s
par Aodvscratch.visualizer.mediumVisualizer signalTransmissionAnimationSpeed "nan "
attr mutable ""
par Aodvscratch.visualizer.mediumVisualizer signalTransmissionAnimationTime 1s
attr unit s
par Aodvscratch.visualizer.mediumVisualizer signalAnimationSpeedChangeTimeMode "\"realTime\""
attr enum realTime,animationTime,simulationTime
par Aodvscratch.visualizer.mediumVisualizer signalAnimationSpeedChangeTime 1s
attr unit s
par Aodvscratch.visualizer.mediumVisualizer displaySignalDepartures false
par Aodvscratch.visualizer.mediumVisualizer signalDepartureImage "\"misc/signal_departure.png\""
par Aodvscratch.visualizer.mediumVisualizer signalDeparturePlacementHint "\"topCenter\""
par Aodvscratch.visualizer.mediumVisualizer signalDeparturePlacementPriority 1
par Aodvscratch.visualizer.mediumVisualizer displaySignalArrivals false
par Aodvscratch.visualizer.mediumVisualizer signalArrivalImage "\"misc/signal_arrival.png\""
par Aodvscratch.visualizer.mediumVisualizer signalArrivalPlacementHint "\"topCenter\""
par Aodvscratch.visualizer.mediumVisualizer signalArrivalPlacementPriority -1
par Aodvscratch.visualizer.mediumVisualizer displayCommunicationRanges false
par Aodvscratch.visualizer.mediumVisualizer communicationRangeLineColor "\"blue\""
par Aodvscratch.visualizer.mediumVisualizer communicationRangeLineStyle "\"solid\""
par Aodvscratch.visualizer.mediumVisualizer communicationRangeLineWidth 1
par Aodvscratch.visualizer.mediumVisualizer displayInterferenceRanges false
par Aodvscratch.visualizer.mediumVisualizer interferenceRangeLineColor "\"gray\""
par Aodvscratch.visualizer.mediumVisualizer interferenceRangeLineStyle "\"solid\""
par Aodvscratch.visualizer.mediumVisualizer interferenceRangeLineWidth 1
par Aodvscratch.visualizer.mediumVisualizer autoPowerAxis true
par Aodvscratch.visualizer.mediumVisualizer signalMinPower "inf dBmW"
attr unit dBmW
par Aodvscratch.visualizer.mediumVisualizer signalMaxPower 0dBmW
attr unit dBmW
par Aodvscratch.visualizer.mediumVisualizer signalMinPowerDensity "inf dBmWpMHz"
attr unit dBmWpMHz
par Aodvscratch.visualizer.mediumVisualizer signalMaxPowerDensity "-inf dBmWpMHz"
attr unit dBmWpMHz
par Aodvscratch.visualizer.mediumVisualizer autoTimeAxis true
par Aodvscratch.visualizer.mediumVisualizer signalMinTime 0s
attr unit s
par Aodvscratch.visualizer.mediumVisualizer signalMaxTime 0s
attr unit s
par Aodvscratch.visualizer.mediumVisualizer autoFrequencyAxis true
par Aodvscratch.visualizer.mediumVisualizer signalMinFrequency "inf Hz"
attr unit Hz
par Aodvscratch.visualizer.mediumVisualizer signalMaxFrequency "-inf Hz"
attr unit Hz
par Aodvscratch.visualizer.mediumVisualizer displayMainPowerDensityMap false
par Aodvscratch.visualizer.mediumVisualizer mainPowerDensityMapPixmapDensity 1
par Aodvscratch.visualizer.mediumVisualizer mainPowerDensityMapMinX 0
par Aodvscratch.visualizer.mediumVisualizer mainPowerDensityMapMaxX "nan "
par Aodvscratch.visualizer.mediumVisualizer mainPowerDensityMapMinY 0
par Aodvscratch.visualizer.mediumVisualizer mainPowerDensityMapMaxY "nan "
par Aodvscratch.visualizer.mediumVisualizer mainPowerDensityMapZ 0
par Aodvscratch.visualizer.mediumVisualizer mainPowerDensityMapFigureXTickCount 3
par Aodvscratch.visualizer.mediumVisualizer mainPowerDensityMapFigureYTickCount 3
par Aodvscratch.visualizer.mediumVisualizer displayPowerDensityMaps false
par Aodvscratch.visualizer.mediumVisualizer powerDensityMapMode "\"auto\""
attr enum total,signal,auto
par Aodvscratch.visualizer.mediumVisualizer powerDensityMapPixelMode "\"mean\""
attr enum sample,partition,mean
par Aodvscratch.visualizer.mediumVisualizer powerDensityMapApproximationSize 10
par Aodvscratch.visualizer.mediumVisualizer powerDensityMapCenterFrequency "nan Hz"
attr mutable ""
attr unit Hz
par Aodvscratch.visualizer.mediumVisualizer powerDensityMapBandwidth 0Hz
attr mutable ""
attr unit Hz
par Aodvscratch.visualizer.mediumVisualizer powerDensityMapFigureWidth 200
par Aodvscratch.visualizer.mediumVisualizer powerDensityMapFigureHeight 120
par Aodvscratch.visualizer.mediumVisualizer powerDensityMapPixmapWidth 200
par Aodvscratch.visualizer.mediumVisualizer powerDensityMapPixmapHeight 120
par Aodvscratch.visualizer.mediumVisualizer powerDensityMapZ 0
par Aodvscratch.visualizer.mediumVisualizer powerDensityMapFigureXTickCount 3
par Aodvscratch.visualizer.mediumVisualizer powerDensityMapFigureYTickCount 3
par Aodvscratch.visualizer.mediumVisualizer displaySpectrums false
par Aodvscratch.visualizer.mediumVisualizer spectrumMode "\"auto\""
attr enum total,signal,auto
par Aodvscratch.visualizer.mediumVisualizer spectrumFigureWidth 200
par Aodvscratch.visualizer.mediumVisualizer spectrumFigureHeight 120
par Aodvscratch.visualizer.mediumVisualizer spectrumFigureXTickCount 3
par Aodvscratch.visualizer.mediumVisualizer spectrumFigureYTickCount 5
par Aodvscratch.visualizer.mediumVisualizer spectrumFigureInterpolationSize 5
par Aodvscratch.visualizer.mediumVisualizer spectrumPlacementHint "\"bottomCenter\""
par Aodvscratch.visualizer.mediumVisualizer spectrumPlacementPriority -1
par Aodvscratch.visualizer.mediumVisualizer displaySpectrograms false
par Aodvscratch.visualizer.mediumVisualizer spectrogramMode "\"auto\""
attr enum total,signal,auto
par Aodvscratch.visualizer.mediumVisualizer spectrogramPixelMode "\"mean\""
attr enum sample,partition,mean
par Aodvscratch.visualizer.mediumVisualizer spectrogramFigureWidth 200
par Aodvscratch.visualizer.mediumVisualizer spectrogramFigureHeight 120
par Aodvscratch.visualizer.mediumVisualizer spectrogramPixmapWidth 200
par Aodvscratch.visualizer.mediumVisualizer spectrogramPixmapHeight 120
par Aodvscratch.visualizer.mediumVisualizer spectrogramFigureXTickCount 3
par Aodvscratch.visualizer.mediumVisualizer spectrogramFigureYTickCount 5
par Aodvscratch.visualizer.mediumVisualizer spectrogramPlacementHint "\"bottomCenter\""
par Aodvscratch.visualizer.mediumVisualizer spectrogramPlacementPriority -1
par Aodvscratch.visualizer.mediumVisualizer zIndex 0
par Aodvscratch.visualizer.mediumVisualizer signalShape "\"ring\""
attr enum ring,sphere
par Aodvscratch.visualizer.mediumVisualizer signalOpacity 0.5
par Aodvscratch.visualizer.mediumVisualizer signalRingCount 20
par Aodvscratch.visualizer.mediumVisualizer signalRingSize 50m
attr unit m
par Aodvscratch.visualizer.mediumVisualizer signalFadingDistance 50m
attr unit m
par Aodvscratch.visualizer.mediumVisualizer signalFadingFactor 1.2
par Aodvscratch.visualizer.mediumVisualizer signalWaveCount 20
par Aodvscratch.visualizer.mediumVisualizer signalWaveLength 50m
attr unit m
par Aodvscratch.visualizer.mediumVisualizer signalWaveWidth 10m
attr unit m
par Aodvscratch.visualizer.mediumVisualizer signalWaveFadingAnimationSpeedFactor 1
par Aodvscratch.visualizer.mediumVisualizer displayCommunicationHeat false
par Aodvscratch.visualizer.obstacleLossVisualizer typename "\"inet.visualizer.canvas.physicallayer.TracingObstacleLossCanvasVisualizer\""
par Aodvscratch.visualizer.obstacleLossVisualizer visualizationTargetModule "\"^.^\""
par Aodvscratch.visualizer.obstacleLossVisualizer visualizationSubjectModule "\"^.^\""
par Aodvscratch.visualizer.obstacleLossVisualizer tags "\"\""
par Aodvscratch.visualizer.obstacleLossVisualizer displayIntersections false
par Aodvscratch.visualizer.obstacleLossVisualizer intersectionLineColor "\"red\""
par Aodvscratch.visualizer.obstacleLossVisualizer intersectionLineStyle "\"solid\""
par Aodvscratch.visualizer.obstacleLossVisualizer intersectionLineWidth 1
par Aodvscratch.visualizer.obstacleLossVisualizer displayFaceNormalVectors false
par Aodvscratch.visualizer.obstacleLossVisualizer faceNormalLineColor "\"grey\""
par Aodvscratch.visualizer.obstacleLossVisualizer faceNormalLineStyle "\"solid\""
par Aodvscratch.visualizer.obstacleLossVisualizer faceNormalLineWidth 1
par Aodvscratch.visualizer.obstacleLossVisualizer fadeOutMode "\"realTime\""
attr enum realTime,animationTime,simulationTime
par Aodvscratch.visualizer.obstacleLossVisualizer fadeOutTime 1s
attr unit s
par Aodvscratch.visualizer.obstacleLossVisualizer fadeOutAnimationSpeed 0
par Aodvscratch.visualizer.obstacleLossVisualizer zIndex 0
par Aodvscratch.visualizer.packetDropVisualizer typename "\"inet.visualizer.canvas.common.PacketDropCanvasVisualizer\""
par Aodvscratch.visualizer.packetDropVisualizer visualizationTargetModule "\"^.^\""
par Aodvscratch.visualizer.packetDropVisualizer visualizationSubjectModule "\"^.^\""
par Aodvscratch.visualizer.packetDropVisualizer tags "\"\""
par Aodvscratch.visualizer.packetDropVisualizer displayPacketDrops false
par Aodvscratch.visualizer.packetDropVisualizer nodeFilter "\"*\""
attr mutable ""
par Aodvscratch.visualizer.packetDropVisualizer interfaceFilter "\"*\""
attr mutable ""
par Aodvscratch.visualizer.packetDropVisualizer packetFilter "(omnetpp::cValueHolder)holder: \"*\""
attr mutable ""
par Aodvscratch.visualizer.packetDropVisualizer detailsFilter "\"*\""
attr mutable ""
par Aodvscratch.visualizer.packetDropVisualizer icon "\"msg/packet_s\""
par Aodvscratch.visualizer.packetDropVisualizer iconTintAmount 1
par Aodvscratch.visualizer.packetDropVisualizer iconTintColor "\"dark\""
par Aodvscratch.visualizer.packetDropVisualizer labelFormat "\"%n\""
attr mutable ""
par Aodvscratch.visualizer.packetDropVisualizer labelFont "\"<default>\""
par Aodvscratch.visualizer.packetDropVisualizer labelColor "\"black\""
par Aodvscratch.visualizer.packetDropVisualizer fadeOutMode "\"realTime\""
attr enum realTime,animationTime,simulationTime
par Aodvscratch.visualizer.packetDropVisualizer fadeOutTime 1s
attr unit s
par Aodvscratch.visualizer.packetDropVisualizer fadeOutAnimationSpeed 0
par Aodvscratch.visualizer.packetDropVisualizer zIndex 10
par Aodvscratch.visualizer.packetDropVisualizer dx 32
par Aodvscratch.visualizer.packetDropVisualizer dy 64
par Aodvscratch.visualizer.packetFlowVisualizer typename "\"inet.visualizer.canvas.flow.PacketFlowCanvasVisualizer\""
par Aodvscratch.visualizer.packetFlowVisualizer visualizationTargetModule "\"^.^\""
par Aodvscratch.visualizer.packetFlowVisualizer visualizationSubjectModule "\"^.^\""
par Aodvscratch.visualizer.packetFlowVisualizer tags "\"\""
par Aodvscratch.visualizer.packetFlowVisualizer displayRoutes false
par Aodvscratch.visualizer.packetFlowVisualizer startPathSignal "\"packetFlowStarted\""
par Aodvscratch.visualizer.packetFlowVisualizer extendPathSignal "\"packetReceivedFromLower\""
par Aodvscratch.visualizer.packetFlowVisualizer endPathSignal "\"packetFlowEnded\""
par Aodvscratch.visualizer.packetFlowVisualizer nodeFilter "\"*\""
attr mutable ""
par Aodvscratch.visualizer.packetFlowVisualizer packetFilter "(omnetpp::cValueHolder)holder: \"*\""
attr mutable ""
par Aodvscratch.visualizer.packetFlowVisualizer lineColor "\"dark\""
par Aodvscratch.visualizer.packetFlowVisualizer lineStyle "\"dashed\""
par Aodvscratch.visualizer.packetFlowVisualizer lineWidth 3
par Aodvscratch.visualizer.packetFlowVisualizer lineSmooth false
par Aodvscratch.visualizer.packetFlowVisualizer lineShift 16
par Aodvscratch.visualizer.packetFlowVisualizer lineShiftMode "\"normal\""
par Aodvscratch.visualizer.packetFlowVisualizer lineContactSpacing 3
par Aodvscratch.visualizer.packetFlowVisualizer lineContactMode "\"rectangular\""
attr enum circular,rectangular
par Aodvscratch.visualizer.packetFlowVisualizer labelFormat "\"%L %p pk (%l)\""
par Aodvscratch.visualizer.packetFlowVisualizer labelFont "\"<default>, 8px\""
par Aodvscratch.visualizer.packetFlowVisualizer labelColor "\"\""
par Aodvscratch.visualizer.packetFlowVisualizer fadeOutMode "\"realTime\""
attr enum realTime,animationTime,simulationTime
par Aodvscratch.visualizer.packetFlowVisualizer fadeOutTime 0s
attr unit s
par Aodvscratch.visualizer.packetFlowVisualizer fadeOutAnimationSpeed 0
par Aodvscratch.visualizer.packetFlowVisualizer zIndex 4
par Aodvscratch.visualizer.queueVisualizer typename "\"inet.visualizer.canvas.common.QueueCanvasVisualizer\""
par Aodvscratch.visualizer.queueVisualizer visualizationTargetModule "\"^.^\""
par Aodvscratch.visualizer.queueVisualizer visualizationSubjectModule "\"^.^\""
par Aodvscratch.visualizer.queueVisualizer tags "\"\""
par Aodvscratch.visualizer.queueVisualizer networkNodeVisualizerModule "\"^.networkNodeVisualizer\""
par Aodvscratch.visualizer.queueVisualizer displayQueues false
par Aodvscratch.visualizer.queueVisualizer queueFilter "\"**\""
par Aodvscratch.visualizer.queueVisualizer color "\"blue\""
par Aodvscratch.visualizer.queueVisualizer width 8
par Aodvscratch.visualizer.queueVisualizer height 24
par Aodvscratch.visualizer.queueVisualizer spacing 2
par Aodvscratch.visualizer.queueVisualizer placementHint "\"right\""
par Aodvscratch.visualizer.queueVisualizer placementPriority 0
par Aodvscratch.visualizer.queueVisualizer zIndex 10
par Aodvscratch.visualizer.gateScheduleVisualizer typename "\"inet.visualizer.canvas.common.GateScheduleCanvasVisualizer\""
par Aodvscratch.visualizer.gateScheduleVisualizer visualizationTargetModule "\"^.^\""
par Aodvscratch.visualizer.gateScheduleVisualizer visualizationSubjectModule "\"^.^\""
par Aodvscratch.visualizer.gateScheduleVisualizer tags "\"\""
par Aodvscratch.visualizer.gateScheduleVisualizer networkNodeVisualizerModule "\"^.networkNodeVisualizer\""
par Aodvscratch.visualizer.gateScheduleVisualizer displayGateSchedules false
par Aodvscratch.visualizer.gateScheduleVisualizer labelFormat "\"%i %D\""
par Aodvscratch.visualizer.gateScheduleVisualizer gateFilter "\"**\""
par Aodvscratch.visualizer.gateScheduleVisualizer width 100
par Aodvscratch.visualizer.gateScheduleVisualizer height 8
par Aodvscratch.visualizer.gateScheduleVisualizer spacing 2
par Aodvscratch.visualizer.gateScheduleVisualizer placementHint "\"right\""
par Aodvscratch.visualizer.gateScheduleVisualizer placementPriority 0
par Aodvscratch.visualizer.gateScheduleVisualizer displayDuration 0s
attr mutable ""
attr unit s
par Aodvscratch.visualizer.gateScheduleVisualizer currentTimePosition 50
par Aodvscratch.visualizer.gateScheduleVisualizer zIndex 10
par Aodvscratch.visualizer.radioVisualizer typename "\"inet.visualizer.canvas.physicallayer.RadioCanvasVisualizer\""
par Aodvscratch.visualizer.radioVisualizer visualizationTargetModule "\"^.^\""
par Aodvscratch.visualizer.radioVisualizer visualizationSubjectModule "\"^.^\""
par Aodvscratch.visualizer.radioVisualizer tags "\"\""
par Aodvscratch.visualizer.radioVisualizer networkNodeVisualizerModule "\"^.networkNodeVisualizer\""
par Aodvscratch.visualizer.radioVisualizer displayRadios false
par Aodvscratch.visualizer.radioVisualizer displayRadioMode true
par Aodvscratch.visualizer.radioVisualizer displayReceptionState true
par Aodvscratch.visualizer.radioVisualizer displayTransmissionState true
par Aodvscratch.visualizer.radioVisualizer displayAntennaLobes false
par Aodvscratch.visualizer.radioVisualizer radioFilter "\"**\""
attr mutable ""
par Aodvscratch.visualizer.radioVisualizer radioModeImages "\"block/process_vs block/timer_vs block/wrx_vs block/wtx_vs block/wrxtx_vs block/cogwheel_vs\""
par Aodvscratch.visualizer.radioVisualizer receptionStateImages "\"- - misc/receiving misc/receiving\""
par Aodvscratch.visualizer.radioVisualizer transmissionStateImages "\"- - misc/transmitting\""
par Aodvscratch.visualizer.radioVisualizer width 16
par Aodvscratch.visualizer.radioVisualizer height 16
par Aodvscratch.visualizer.radioVisualizer placementHint "\"bottomRight\""
par Aodvscratch.visualizer.radioVisualizer placementPriority 0
par Aodvscratch.visualizer.radioVisualizer antennaLobeNormalize false
par Aodvscratch.visualizer.radioVisualizer antennaLobeRelativeLabels false
par Aodvscratch.visualizer.radioVisualizer antennaLobePlaneGlobal true
par Aodvscratch.visualizer.radioVisualizer antennaLobePlane "\"view\""
attr enum view,xy,xz,yz
par Aodvscratch.visualizer.radioVisualizer antennaLobeMode "\"logarithmic\""
attr enum logarithmic,linear
par Aodvscratch.visualizer.radioVisualizer antennaLobeLogarithmicBase 10
par Aodvscratch.visualizer.radioVisualizer antennaLobeLogarithmicScale 100
par Aodvscratch.visualizer.radioVisualizer antennaLobeRadius 100
par Aodvscratch.visualizer.radioVisualizer antennaLobeStep 10deg
attr unit deg
par Aodvscratch.visualizer.radioVisualizer antennaLobeOpacity 0.25
par Aodvscratch.visualizer.radioVisualizer antennaLobeLineSmooth true
par Aodvscratch.visualizer.radioVisualizer antennaLobeLineColor "\"black\""
par Aodvscratch.visualizer.radioVisualizer antennaLobeLineStyle "\"solid\""
par Aodvscratch.visualizer.radioVisualizer antennaLobeLineWidth 1
par Aodvscratch.visualizer.radioVisualizer antennaLobeFillColor "\"white\""
par Aodvscratch.visualizer.radioVisualizer zIndex 10
par Aodvscratch.visualizer.physicalLinkVisualizer typename "\"inet.visualizer.canvas.physicallayer.PhysicalLinkCanvasVisualizer\""
par Aodvscratch.visualizer.physicalLinkVisualizer visualizationTargetModule "\"^.^\""
par Aodvscratch.visualizer.physicalLinkVisualizer visualizationSubjectModule "\"^.^\""
par Aodvscratch.visualizer.physicalLinkVisualizer tags "\"\""
par Aodvscratch.visualizer.physicalLinkVisualizer displayLinks false
par Aodvscratch.visualizer.physicalLinkVisualizer activityLevel "\"service\""
attr enum service,peer,protocol
par Aodvscratch.visualizer.physicalLinkVisualizer nodeFilter "\"*\""
attr mutable ""
par Aodvscratch.visualizer.physicalLinkVisualizer interfaceFilter "\"*\""
attr mutable ""
par Aodvscratch.visualizer.physicalLinkVisualizer packetFilter "(omnetpp::cValueHolder)holder: \"*\""
attr mutable ""
par Aodvscratch.visualizer.physicalLinkVisualizer lineColor "\"olive\""
par Aodvscratch.visualizer.physicalLinkVisualizer lineStyle "\"dotted\""
par Aodvscratch.visualizer.physicalLinkVisualizer lineWidth 3
par Aodvscratch.visualizer.physicalLinkVisualizer lineShift 16
par Aodvscratch.visualizer.physicalLinkVisualizer lineShiftMode "\"normal\""
par Aodvscratch.visualizer.physicalLinkVisualizer lineContactSpacing 3
par Aodvscratch.visualizer.physicalLinkVisualizer lineContactMode "\"rectangular\""
attr enum circular,rectangular
par Aodvscratch.visualizer.physicalLinkVisualizer labelFormat "\"%n\""
par Aodvscratch.visualizer.physicalLinkVisualizer labelFont "\"<default>, 8px\""
par Aodvscratch.visualizer.physicalLinkVisualizer labelColor "\"olive\""
par Aodvscratch.visualizer.physicalLinkVisualizer fadeOutMode "\"realTime\""
attr enum realTime,animationTime,simulationTime
par Aodvscratch.visualizer.physicalLinkVisualizer fadeOutTime 1s
attr unit s
par Aodvscratch.visualizer.physicalLinkVisualizer fadeOutAnimationSpeed 0
par Aodvscratch.visualizer.physicalLinkVisualizer holdAnimationTime 0s
attr unit s
par Aodvscratch.visualizer.physicalLinkVisualizer zIndex 1
par Aodvscratch.visualizer.interfaceTableVisualizer typename "\"inet.visualizer.canvas.linklayer.InterfaceTableCanvasVisualizer\""
par Aodvscratch.visualizer.interfaceTableVisualizer visualizationTargetModule "\"^.^\""
par Aodvscratch.visualizer.interfaceTableVisualizer visualizationSubjectModule "\"^.^\""
par Aodvscratch.visualizer.interfaceTableVisualizer tags "\"\""
par Aodvscratch.visualizer.interfaceTableVisualizer networkNodeVisualizerModule "\"^.networkNodeVisualizer\""
par Aodvscratch.visualizer.interfaceTableVisualizer displayInterfaceTables false
par Aodvscratch.visualizer.interfaceTableVisualizer displayWiredInterfacesAtConnections true
par Aodvscratch.visualizer.interfaceTableVisualizer displayBackground false
par Aodvscratch.visualizer.interfaceTableVisualizer nodeFilter "\"*\""
attr mutable ""
par Aodvscratch.visualizer.interfaceTableVisualizer interfaceFilter "\"not(lo*)\""
attr mutable ""
par Aodvscratch.visualizer.interfaceTableVisualizer format "\"%N %\\\\%a%/%l\""
attr mutable ""
par Aodvscratch.visualizer.interfaceTableVisualizer placementHint "\"top\""
par Aodvscratch.visualizer.interfaceTableVisualizer placementPriority 0
par Aodvscratch.visualizer.interfaceTableVisualizer font "\"<default>\""
par Aodvscratch.visualizer.interfaceTableVisualizer textColor "\"#005030\""
par Aodvscratch.visualizer.interfaceTableVisualizer backgroundColor "\"white\""
par Aodvscratch.visualizer.interfaceTableVisualizer opacity 1
par Aodvscratch.visualizer.interfaceTableVisualizer zIndex 10
par Aodvscratch.visualizer.dataLinkVisualizer typename "\"inet.visualizer.canvas.linklayer.DataLinkCanvasVisualizer\""
par Aodvscratch.visualizer.dataLinkVisualizer visualizationTargetModule "\"^.^\""
par Aodvscratch.visualizer.dataLinkVisualizer visualizationSubjectModule "\"^.^\""
par Aodvscratch.visualizer.dataLinkVisualizer tags "\"\""
par Aodvscratch.visualizer.dataLinkVisualizer displayLinks true
par Aodvscratch.visualizer.dataLinkVisualizer activityLevel "\"service\""
attr enum service,peer,protocol
par Aodvscratch.visualizer.dataLinkVisualizer nodeFilter "\"*\""
attr mutable ""
par Aodvscratch.visualizer.dataLinkVisualizer interfaceFilter "\"*\""
attr mutable ""
par Aodvscratch.visualizer.dataLinkVisualizer packetFilter "(omnetpp::cValueHolder)holder: \"*\""
attr mutable ""
par Aodvscratch.visualizer.dataLinkVisualizer lineColor "\"darkcyan\""
par Aodvscratch.visualizer.dataLinkVisualizer lineStyle "\"solid\""
par Aodvscratch.visualizer.dataLinkVisualizer lineWidth 3
par Aodvscratch.visualizer.dataLinkVisualizer lineShift 16
par Aodvscratch.visualizer.dataLinkVisualizer lineShiftMode "\"normal\""
par Aodvscratch.visualizer.dataLinkVisualizer lineContactSpacing 3
par Aodvscratch.visualizer.dataLinkVisualizer lineContactMode "\"rectangular\""
attr enum circular,rectangular
par Aodvscratch.visualizer.dataLinkVisualizer labelFormat "\"%n\""
par Aodvscratch.visualizer.dataLinkVisualizer labelFont "\"<default>, 8px\""
par Aodvscratch.visualizer.dataLinkVisualizer labelColor "\"darkcyan\""
par Aodvscratch.visualizer.dataLinkVisualizer fadeOutMode "\"realTime\""
attr enum realTime,animationTime,simulationTime
par Aodvscratch.visualizer.dataLinkVisualizer fadeOutTime 1s
attr unit s
par Aodvscratch.visualizer.dataLinkVisualizer fadeOutAnimationSpeed 0
par Aodvscratch.visualizer.dataLinkVisualizer holdAnimationTime 0s
attr unit s
par Aodvscratch.visualizer.dataLinkVisualizer zIndex 2
par Aodvscratch.visualizer.linkBreakVisualizer typename "\"inet.visualizer.canvas.linklayer.LinkBreakCanvasVisualizer\""
par Aodvscratch.visualizer.linkBreakVisualizer visualizationTargetModule "\"^.^\""
par Aodvscratch.visualizer.linkBreakVisualizer visualizationSubjectModule "\"^.^\""
par Aodvscratch.visualizer.linkBreakVisualizer tags "\"\""
par Aodvscratch.visualizer.linkBreakVisualizer displayLinkBreaks false
par Aodvscratch.visualizer.linkBreakVisualizer nodeFilter "\"*\""
attr mutable ""
par Aodvscratch.visualizer.linkBreakVisualizer interfaceFilter "\"*\""
attr mutable ""
par Aodvscratch.visualizer.linkBreakVisualizer packetFilter "(omnetpp::cValueHolder)holder: \"*\""
attr mutable ""
par Aodvscratch.visualizer.linkBreakVisualizer icon "\"status/stop\""
par Aodvscratch.visualizer.linkBreakVisualizer iconTintAmount 0
par Aodvscratch.visualizer.linkBreakVisualizer iconTintColor "\"\""
par Aodvscratch.visualizer.linkBreakVisualizer fadeOutMode "\"realTime\""
attr enum realTime,animationTime,simulationTime
par Aodvscratch.visualizer.linkBreakVisualizer fadeOutTime 1s
attr unit s
par Aodvscratch.visualizer.linkBreakVisualizer fadeOutAnimationSpeed 0
par Aodvscratch.visualizer.linkBreakVisualizer zIndex 2
par Aodvscratch.visualizer.ieee80211Visualizer typename "\"inet.visualizer.canvas.linklayer.Ieee80211CanvasVisualizer\""
par Aodvscratch.visualizer.ieee80211Visualizer visualizationTargetModule "\"^.^\""
par Aodvscratch.visualizer.ieee80211Visualizer visualizationSubjectModule "\"^.^\""
par Aodvscratch.visualizer.ieee80211Visualizer tags "\"\""
par Aodvscratch.visualizer.ieee80211Visualizer networkNodeVisualizerModule "\"^.networkNodeVisualizer\""
par Aodvscratch.visualizer.ieee80211Visualizer displayAssociations false
par Aodvscratch.visualizer.ieee80211Visualizer nodeFilter "\"*\""
attr mutable ""
par Aodvscratch.visualizer.ieee80211Visualizer interfaceFilter "\"*\""
attr mutable ""
par Aodvscratch.visualizer.ieee80211Visualizer minPower -85dBm
attr unit dBm
par Aodvscratch.visualizer.ieee80211Visualizer maxPower -50dBm
attr unit dBm
par Aodvscratch.visualizer.ieee80211Visualizer icons "\"misc/signal_power_0 misc/signal_power_1 misc/signal_power_2 misc/signal_power_3\""
par Aodvscratch.visualizer.ieee80211Visualizer iconColor "\"dark\""
par Aodvscratch.visualizer.ieee80211Visualizer labelFont "\"<default>\""
par Aodvscratch.visualizer.ieee80211Visualizer labelColor "\"black\""
par Aodvscratch.visualizer.ieee80211Visualizer placementHint "\"top\""
par Aodvscratch.visualizer.ieee80211Visualizer placementPriority 0
par Aodvscratch.visualizer.ieee80211Visualizer zIndex 2
par Aodvscratch.visualizer.networkRouteVisualizer typename "\"inet.visualizer.canvas.networklayer.NetworkRouteCanvasVisualizer\""
par Aodvscratch.visualizer.networkRouteVisualizer visualizationTargetModule "\"^.^\""
par Aodvscratch.visualizer.networkRouteVisualizer visualizationSubjectModule "\"^.^\""
par Aodvscratch.visualizer.networkRouteVisualizer tags "\"\""
par Aodvscratch.visualizer.networkRouteVisualizer displayRoutes true
par Aodvscratch.visualizer.networkRouteVisualizer startPathSignal "\"packetReceivedFromUpper\""
par Aodvscratch.visualizer.networkRouteVisualizer extendPathSignal "\"packetReceivedFromLower\""
par Aodvscratch.visualizer.networkRouteVisualizer endPathSignal "\"packetSentToUpper\""
par Aodvscratch.visualizer.networkRouteVisualizer nodeFilter "\"*\""
attr mutable ""
par Aodvscratch.visualizer.networkRouteVisualizer packetFilter "(omnetpp::cValueHolder)holder: \"*\""
attr mutable ""
par Aodvscratch.visualizer.networkRouteVisualizer lineColor "\"dark\""
par Aodvscratch.visualizer.networkRouteVisualizer lineStyle "\"solid\""
par Aodvscratch.visualizer.networkRouteVisualizer lineWidth 3
par Aodvscratch.visualizer.networkRouteVisualizer lineSmooth false
par Aodvscratch.visualizer.networkRouteVisualizer lineShift 16
par Aodvscratch.visualizer.networkRouteVisualizer lineShiftMode "\"normal\""
par Aodvscratch.visualizer.networkRouteVisualizer lineContactSpacing 3
par Aodvscratch.visualizer.networkRouteVisualizer lineContactMode "\"rectangular\""
attr enum circular,rectangular
par Aodvscratch.visualizer.networkRouteVisualizer labelFormat "\"%n\""
par Aodvscratch.visualizer.networkRouteVisualizer labelFont "\"<default>, 8px\""
par Aodvscratch.visualizer.networkRouteVisualizer labelColor "\"\""
par Aodvscratch.visualizer.networkRouteVisualizer fadeOutMode "\"realTime\""
attr enum realTime,animationTime,simulationTime
par Aodvscratch.visualizer.networkRouteVisualizer fadeOutTime 1s
attr unit s
par Aodvscratch.visualizer.networkRouteVisualizer fadeOutAnimationSpeed 0
par Aodvscratch.visualizer.networkRouteVisualizer zIndex 3
par Aodvscratch.visualizer.routingTableVisualizer typename "\"inet.visualizer.canvas.networklayer.RoutingTableCanvasVisualizer\""
par Aodvscratch.visualizer.routingTableVisualizer visualizationTargetModule "\"^.^\""
par Aodvscratch.visualizer.routingTableVisualizer visualizationSubjectModule "\"^.^\""
par Aodvscratch.visualizer.routingTableVisualizer tags "\"\""
par Aodvscratch.visualizer.routingTableVisualizer displayRoutingTables false
par Aodvscratch.visualizer.routingTableVisualizer displayRoutesIndividually true
par Aodvscratch.visualizer.routingTableVisualizer displayLabels true
par Aodvscratch.visualizer.routingTableVisualizer destinationFilter "\"*\""
attr mutable ""
par Aodvscratch.visualizer.routingTableVisualizer nodeFilter "\"*\""
attr mutable ""
par Aodvscratch.visualizer.routingTableVisualizer lineColor "\"black\""
par Aodvscratch.visualizer.routingTableVisualizer lineStyle "\"solid\""
par Aodvscratch.visualizer.routingTableVisualizer lineWidth 2
par Aodvscratch.visualizer.routingTableVisualizer lineShift 16
par Aodvscratch.visualizer.routingTableVisualizer lineShiftMode "\"normal\""
par Aodvscratch.visualizer.routingTableVisualizer lineContactSpacing 3
par Aodvscratch.visualizer.routingTableVisualizer lineContactMode "\"rectangular\""
attr enum circular,rectangular
par Aodvscratch.visualizer.routingTableVisualizer labelFormat "\"%d/%m -> %g (%n)\""
attr mutable ""
par Aodvscratch.visualizer.routingTableVisualizer labelFont "\"<default>, 8px\""
par Aodvscratch.visualizer.routingTableVisualizer labelColor "\"black\""
par Aodvscratch.visualizer.routingTableVisualizer zIndex 0
par Aodvscratch.visualizer.transportRouteVisualizer typename "\"inet.visualizer.canvas.transportlayer.TransportRouteCanvasVisualizer\""
par Aodvscratch.visualizer.transportRouteVisualizer visualizationTargetModule "\"^.^\""
par Aodvscratch.visualizer.transportRouteVisualizer visualizationSubjectModule "\"^.^\""
par Aodvscratch.visualizer.transportRouteVisualizer tags "\"\""
par Aodvscratch.visualizer.transportRouteVisualizer displayRoutes false
par Aodvscratch.visualizer.transportRouteVisualizer startPathSignal "\"packetReceivedFromUpper\""
par Aodvscratch.visualizer.transportRouteVisualizer extendPathSignal "\"packetReceivedFromLower\""
par Aodvscratch.visualizer.transportRouteVisualizer endPathSignal "\"packetSentToUpper\""
par Aodvscratch.visualizer.transportRouteVisualizer nodeFilter "\"*\""
attr mutable ""
par Aodvscratch.visualizer.transportRouteVisualizer packetFilter "(omnetpp::cValueHolder)holder: \"*\""
attr mutable ""
par Aodvscratch.visualizer.transportRouteVisualizer lineColor "\"dark\""
par Aodvscratch.visualizer.transportRouteVisualizer lineStyle "\"solid\""
par Aodvscratch.visualizer.transportRouteVisualizer lineWidth 3
par Aodvscratch.visualizer.transportRouteVisualizer lineSmooth false
par Aodvscratch.visualizer.transportRouteVisualizer lineShift 16
par Aodvscratch.visualizer.transportRouteVisualizer lineShiftMode "\"normal\""
par Aodvscratch.visualizer.transportRouteVisualizer lineContactSpacing 3
par Aodvscratch.visualizer.transportRouteVisualizer lineContactMode "\"rectangular\""
attr enum circular,rectangular
par Aodvscratch.visualizer.transportRouteVisualizer labelFormat "\"%n\""
par Aodvscratch.visualizer.transportRouteVisualizer labelFont "\"<default>, 8px\""
par Aodvscratch.visualizer.transportRouteVisualizer labelColor "\"\""
par Aodvscratch.visualizer.transportRouteVisualizer fadeOutMode "\"realTime\""
attr enum realTime,animationTime,simulationTime
par Aodvscratch.visualizer.transportRouteVisualizer fadeOutTime 1s
attr unit s
par Aodvscratch.visualizer.transportRouteVisualizer fadeOutAnimationSpeed 0
par Aodvscratch.visualizer.transportRouteVisualizer zIndex 4
par Aodvscratch.visualizer.transportConnectionVisualizer typename "\"inet.visualizer.canvas.transportlayer.TransportConnectionCanvasVisualizer\""
par Aodvscratch.visualizer.transportConnectionVisualizer visualizationTargetModule "\"^.^\""
par Aodvscratch.visualizer.transportConnectionVisualizer visualizationSubjectModule "\"^.^\""
par Aodvscratch.visualizer.transportConnectionVisualizer tags "\"\""
par Aodvscratch.visualizer.transportConnectionVisualizer networkNodeVisualizerModule "\"^.networkNodeVisualizer\""
par Aodvscratch.visualizer.transportConnectionVisualizer displayTransportConnections false
par Aodvscratch.visualizer.transportConnectionVisualizer sourceNodeFilter "\"*\""
attr mutable ""
par Aodvscratch.visualizer.transportConnectionVisualizer sourcePortFilter "\"*\""
attr mutable ""
par Aodvscratch.visualizer.transportConnectionVisualizer destinationNodeFilter "\"*\""
attr mutable ""
par Aodvscratch.visualizer.transportConnectionVisualizer destinationPortFilter "\"*\""
attr mutable ""
par Aodvscratch.visualizer.transportConnectionVisualizer icon "\"misc/marker_s\""
par Aodvscratch.visualizer.transportConnectionVisualizer iconColor "\"dark\""
par Aodvscratch.visualizer.transportConnectionVisualizer labelFont "\"<default>\""
par Aodvscratch.visualizer.transportConnectionVisualizer labelColor "\"black\""
par Aodvscratch.visualizer.transportConnectionVisualizer placementHint "\"top\""
par Aodvscratch.visualizer.transportConnectionVisualizer placementPriority 0
par Aodvscratch.visualizer.transportConnectionVisualizer zIndex 4
par Aodvscratch.visualizer.failureProtectionConfigurationVisualizer typename "\"inet.visualizer.canvas.configurator.FailureProtectionConfigurationCanvasVisualizer\""
par Aodvscratch.visualizer.failureProtectionConfigurationVisualizer visualizationTargetModule "\"^.^\""
par Aodvscratch.visualizer.failureProtectionConfigurationVisualizer visualizationSubjectModule "\"^.^\""
par Aodvscratch.visualizer.failureProtectionConfigurationVisualizer tags "\"\""
par Aodvscratch.visualizer.failureProtectionConfigurationVisualizer displayTrees false
par Aodvscratch.visualizer.failureProtectionConfigurationVisualizer lineColor "\"dark\""
par Aodvscratch.visualizer.failureProtectionConfigurationVisualizer lineStyle "\"solid\""
par Aodvscratch.visualizer.failureProtectionConfigurationVisualizer lineWidth 3
par Aodvscratch.visualizer.failureProtectionConfigurationVisualizer lineSmooth false
par Aodvscratch.visualizer.failureProtectionConfigurationVisualizer lineShift 16
par Aodvscratch.visualizer.failureProtectionConfigurationVisualizer lineShiftMode "\"normal\""
par Aodvscratch.visualizer.failureProtectionConfigurationVisualizer lineContactSpacing 3
par Aodvscratch.visualizer.failureProtectionConfigurationVisualizer lineContactMode "\"rectangular\""
attr enum circular,rectangular
par Aodvscratch.visualizer.failureProtectionConfigurationVisualizer failureProtectionConfiguratorModule "\"failureProtectionConfigurator\""
par Aodvscratch.visualizer.failureProtectionConfigurationVisualizer streamFilter "\"*\""
par Aodvscratch.visualizer.failureProtectionConfigurationVisualizer zIndex 3
par Aodvscratch.visualizer.streamRedundancyConfigurationVisualizer typename "\"inet.visualizer.canvas.configurator.StreamRedundancyConfigurationCanvasVisualizer\""
par Aodvscratch.visualizer.streamRedundancyConfigurationVisualizer visualizationTargetModule "\"^.^\""
par Aodvscratch.visualizer.streamRedundancyConfigurationVisualizer visualizationSubjectModule "\"^.^\""
par Aodvscratch.visualizer.streamRedundancyConfigurationVisualizer tags "\"\""
par Aodvscratch.visualizer.streamRedundancyConfigurationVisualizer displayTrees false
par Aodvscratch.visualizer.streamRedundancyConfigurationVisualizer lineColor "\"dark\""
par Aodvscratch.visualizer.streamRedundancyConfigurationVisualizer lineStyle "\"solid\""
par Aodvscratch.visualizer.streamRedundancyConfigurationVisualizer lineWidth 3
par Aodvscratch.visualizer.streamRedundancyConfigurationVisualizer lineSmooth false
par Aodvscratch.visualizer.streamRedundancyConfigurationVisualizer lineShift 16
par Aodvscratch.visualizer.streamRedundancyConfigurationVisualizer lineShiftMode "\"normal\""
par Aodvscratch.visualizer.streamRedundancyConfigurationVisualizer lineContactSpacing 3
par Aodvscratch.visualizer.streamRedundancyConfigurationVisualizer lineContactMode "\"rectangular\""
attr enum circular,rectangular
par Aodvscratch.visualizer.streamRedundancyConfigurationVisualizer streamRedundancyConfiguratorModule "\"streamRedundancyConfigurator\""
par Aodvscratch.visualizer.streamRedundancyConfigurationVisualizer streamFilter "\"*\""
par Aodvscratch.visualizer.streamRedundancyConfigurationVisualizer zIndex 3
par Aodvscratch.visualizer typename "\"inet.visualizer.canvas.integrated.IntegratedCanvasVisualizer\""
par Aodvscratch.configurator typename "\"inet.networklayer.configurator.ipv4.Ipv4NetworkConfigurator\""
par Aodvscratch.configurator minLinkWeight 0.001
par Aodvscratch.configurator configureIsolatedNetworksSeparatly false
par Aodvscratch.configurator config "<config>...</config> at content:1"
par Aodvscratch.configurator assignAddresses true
par Aodvscratch.configurator assignUniqueAddresses true
par Aodvscratch.configurator assignDisjunctSubnetAddresses true
par Aodvscratch.configurator addStaticRoutes true
par Aodvscratch.configurator addDefaultRoutes true
par Aodvscratch.configurator addSubnetRoutes true
par Aodvscratch.configurator addDirectRoutes true
par Aodvscratch.configurator optimizeRoutes true
par Aodvscratch.configurator dumpTopology false
par Aodvscratch.configurator dumpLinks false
par Aodvscratch.configurator dumpAddresses false
par Aodvscratch.configurator dumpRoutes false
par Aodvscratch.configurator dumpConfig "\"\""
par Aodvscratch.routingTableRecorder typename "\"inet.networklayer.ipv4.RoutingTableRecorder\""
par Aodvscratch.routingTableRecorder enabled true
par Aodvscratch.scenarioManager typename "\"inet.common.scenario.ScenarioManager\""
par Aodvscratch.scenarioManager script "<scenario/> at content:1"
par Aodvscratch.nodoFijo1.radioIn[0].channel typename "\"ned.IdealChannel\""
par Aodvscratch.nodoFijo1.mobility typename "\"inet.mobility.static.StationaryMobility\""
par Aodvscratch.nodoFijo1.mobility subjectModule "\"^\""
par Aodvscratch.nodoFijo1.mobility coordinateSystemModule "\"\""
par Aodvscratch.nodoFijo1.mobility displayStringTextFormat "\"p: %p\\nv: %v\""
attr mutable ""
par Aodvscratch.nodoFijo1.mobility updateDisplayString true
par Aodvscratch.nodoFijo1.mobility constraintAreaMinX 0m
attr unit m
par Aodvscratch.nodoFijo1.mobility constraintAreaMinY 0m
attr unit m
par Aodvscratch.nodoFijo1.mobility constraintAreaMinZ 0m
attr unit m
par Aodvscratch.nodoFijo1.mobility constraintAreaMaxX 1200m
attr unit m
par Aodvscratch.nodoFijo1.mobility constraintAreaMaxY 600m
attr unit m
par Aodvscratch.nodoFijo1.mobility constraintAreaMaxZ 0m
attr unit m
par Aodvscratch.nodoFijo1.mobility initialX 0m
attr unit m
par Aodvscratch.nodoFijo1.mobility initialY 300m
attr unit m
par Aodvscratch.nodoFijo1.mobility initialZ 0m
attr unit m
par Aodvscratch.nodoFijo1.mobility initialLatitude "nan deg"
attr unit deg
par Aodvscratch.nodoFijo1.mobility initialLongitude "nan deg"
attr unit deg
par Aodvscratch.nodoFijo1.mobility initialAltitude 0m
attr unit m
par Aodvscratch.nodoFijo1.mobility initialHeading 0deg
attr unit deg
par Aodvscratch.nodoFijo1.mobility initialElevation 0deg
attr unit deg
par Aodvscratch.nodoFijo1.mobility initialBank 0deg
attr unit deg
par Aodvscratch.nodoFijo1.mobility initFromDisplayString false
par Aodvscratch.nodoFijo1.mobility updateFromDisplayString true
par Aodvscratch.nodoFijo1.interfaceTable typename "\"inet.networklayer.common.InterfaceTable\""
par Aodvscratch.nodoFijo1.interfaceTable displayAddresses false
par Aodvscratch.nodoFijo1.cb typename "\"inet.common.MessageDispatcher\""
par Aodvscratch.nodoFijo1.cb displayStringTextFormat "\"processed %p pk (%l)\""
par Aodvscratch.nodoFijo1.cb forwardServiceRegistration true
par Aodvscratch.nodoFijo1.cb forwardProtocolRegistration true
par Aodvscratch.nodoFijo1.bl typename "\"inet.common.MessageDispatcher\""
par Aodvscratch.nodoFijo1.bl displayStringTextFormat "\"processed %p pk (%l)\""
par Aodvscratch.nodoFijo1.bl forwardServiceRegistration true
par Aodvscratch.nodoFijo1.bl forwardProtocolRegistration true
par Aodvscratch.nodoFijo1.li typename "\"inet.common.MessageDispatcher\""
par Aodvscratch.nodoFijo1.li displayStringTextFormat "\"processed %p pk (%l)\""
par Aodvscratch.nodoFijo1.li forwardServiceRegistration true
par Aodvscratch.nodoFijo1.li forwardProtocolRegistration true
par Aodvscratch.nodoFijo1.lo[0].upperLayerIn.channel typename "\"ned.IdealChannel\""
par Aodvscratch.nodoFijo1.lo[0].lo.upperLayerOut.channel typename "\"ned.IdealChannel\""
par Aodvscratch.nodoFijo1.lo[0].lo typename "\"inet.linklayer.loopback.Loopback\""
par Aodvscratch.nodoFijo1.lo[0].lo interfaceTableModule "\"Aodvscratch.nodoFijo1.interfaceTable\""
par Aodvscratch.nodoFijo1.lo[0].lo mtu 4470B
attr unit B
scalar Aodvscratch.nodoFijo1.lo[0].lo rcvdPkFromHl:count 0
attr interpolationmode none
attr recordingmode count
attr source packetReceivedFromUpper
attr title "packets received from higher layer, count"
scalar Aodvscratch.nodoFijo1.lo[0].lo rcvdPkFromHl:sum(packetBytes) 0
attr interpolationmode none
attr recordingmode sum(packetBytes)
attr source packetReceivedFromUpper
attr title "packets received from higher layer, sum(packetBytes)"
scalar Aodvscratch.nodoFijo1.lo[0].lo passedUpPk:count 0
attr interpolationmode none
attr recordingmode count
attr source packetSentToUpper
attr title "packets passed to higher layer, count"
scalar Aodvscratch.nodoFijo1.lo[0].lo passedUpPk:sum(packetBytes) 0
attr interpolationmode none
attr recordingmode sum(packetBytes)
attr source packetSentToUpper
attr title "packets passed to higher layer, sum(packetBytes)"
par Aodvscratch.nodoFijo1.lo[0] typename "\"inet.linklayer.loopback.LoopbackInterface\""
par Aodvscratch.nodoFijo1.lo[0] displayStringTextFormat "\"%a (%i)\\n%m\""
par Aodvscratch.nodoFijo1.lo[0] recordPcap false
par Aodvscratch.nodoFijo1.lo[0] numPcapRecorders 0
par Aodvscratch.nodoFijo1.lo[0] interfaceTableModule "\"Aodvscratch.nodoFijo1.interfaceTable\""
scalar Aodvscratch.nodoFijo1.lo[0] packetDropInterfaceDown:count 0
attr interpolationmode none
attr recordingmode count
attr source packetDropReasonIsInterfaceDown(packetDropped)
attr title "packet drops: interface down, count"
scalar Aodvscratch.nodoFijo1.lo[0] packetDropInterfaceDown:sum(packetBytes) 0
attr interpolationmode none
attr recordingmode sum(packetBytes)
attr source packetDropReasonIsInterfaceDown(packetDropped)
attr title "packet drops: interface down, sum(packetBytes)"
scalar Aodvscratch.nodoFijo1.lo[0] packetDropNoCarrier:count 0
attr interpolationmode none
attr recordingmode count
attr source packetDropReasonIsNoCarrier(packetDropped)
attr title "packet drops: no carrier, count"
scalar Aodvscratch.nodoFijo1.lo[0] packetDropNoCarrier:sum(packetBytes) 0
attr interpolationmode none
attr recordingmode sum(packetBytes)
attr source packetDropReasonIsNoCarrier(packetDropped)
attr title "packet drops: no carrier, sum(packetBytes)"
par Aodvscratch.nodoFijo1.wlan[0].upperLayerIn.channel typename "\"ned.IdealChannel\""
par Aodvscratch.nodoFijo1.wlan[0].radioIn.channel typename "\"ned.IdealChannel\""
par Aodvscratch.nodoFijo1.wlan[0].mac.upperLayerOut.channel typename "\"ned.IdealChannel\""
par Aodvscratch.nodoFijo1.wlan[0].queue typename "\"inet.queueing.queue.DropTailQueue\""
par Aodvscratch.nodoFijo1.wlan[0].queue displayStringTextFormat "\"contains %p pk (%l) pushed %u\\npulled %o removed %r dropped %d\""
par Aodvscratch.nodoFijo1.wlan[0].queue packetCapacity 100
par Aodvscratch.nodoFijo1.wlan[0].queue dataCapacity -1b
attr unit b
par Aodvscratch.nodoFijo1.wlan[0].queue dropperClass "\"inet::queueing::PacketAtCollectionEndDropper\""
par Aodvscratch.nodoFijo1.wlan[0].queue comparatorClass "\"\""
par Aodvscratch.nodoFijo1.wlan[0].queue bufferModule "\"\""
scalar Aodvscratch.nodoFijo1.wlan[0].queue queueLength:last 0
attr autoWarmupFilter false
attr interpolationmode sample-hold
attr recordingmode last
attr source "warmup(atomic(constant0(packetPushEnded) + count(packetPushStarted) - count(packetPulled) - count(packetRemoved) - count(packetDropped)))"
attr title "queue length, last"
attr unit pk
scalar Aodvscratch.nodoFijo1.wlan[0].queue queueLength:max 0
attr autoWarmupFilter false
attr interpolationmode sample-hold
attr recordingmode max
attr source "warmup(atomic(constant0(packetPushEnded) + count(packetPushStarted) - count(packetPulled) - count(packetRemoved) - count(packetDropped)))"
attr title "queue length, max"
attr unit pk
scalar Aodvscratch.nodoFijo1.wlan[0].queue queueLength:timeavg 0
attr autoWarmupFilter false
attr interpolationmode sample-hold
attr recordingmode timeavg
attr source "warmup(atomic(constant0(packetPushEnded) + count(packetPushStarted) - count(packetPulled) - count(packetRemoved) - count(packetDropped)))"
attr title "queue length, timeavg"
attr unit pk
scalar Aodvscratch.nodoFijo1.wlan[0].queue queueBitLength:last 0
attr autoWarmupFilter false
attr interpolationmode sample-hold
attr recordingmode last
attr source "warmup(atomic(constant0(packetPushEnded) + sum(packetLength(packetPushStarted)) - sum(packetLength(packetPulled)) - sum(packetLength(packetRemoved)) - sum(packetLength(packetDropped))))"
attr title "queue bit length, last"
attr unit b
scalar Aodvscratch.nodoFijo1.wlan[0].queue queueBitLength:max 0
attr autoWarmupFilter false
attr interpolationmode sample-hold
attr recordingmode max
attr source "warmup(atomic(constant0(packetPushEnded) + sum(packetLength(packetPushStarted)) - sum(packetLength(packetPulled)) - sum(packetLength(packetRemoved)) - sum(packetLength(packetDropped))))"
attr title "queue bit length, max"
attr unit b
scalar Aodvscratch.nodoFijo1.wlan[0].queue queueBitLength:timeavg 0
attr autoWarmupFilter false
attr interpolationmode sample-hold
attr recordingmode timeavg
attr source "warmup(atomic(constant0(packetPushEnded) + sum(packetLength(packetPushStarted)) - sum(packetLength(packetPulled)) - sum(packetLength(packetRemoved)) - sum(packetLength(packetDropped))))"
attr title "queue bit length, timeavg"
attr unit b
statistic Aodvscratch.nodoFijo1.wlan[0].queue queueingTime:histogram
field count 0
field mean nan
field stddev nan
field min nan
field max nan
field sum 0
field sqrsum 0
attr interpolationmode none
attr recordingmode histogram
attr source queueingTime(packetPulled)
attr title "queueing times"
attr unit s
bin	-inf	0
bin	0	0
bin	1	0
scalar Aodvscratch.nodoFijo1.wlan[0].queue outgoingPackets:count 0
attr recordingmode count
attr source packetPulled
attr title "outgoing packets, count"
attr unit pk
scalar Aodvscratch.nodoFijo1.wlan[0].queue outgoingPacketLengths:sum 0
attr interpolationmode none
attr recordingmode sum
attr source packetLength(packetPulled)
attr title "outgoing packet lengths, sum"
attr unit b
statistic Aodvscratch.nodoFijo1.wlan[0].queue outgoingPacketLengths:histogram
field count 0
field mean nan
field stddev nan
field min nan
field max nan
field sum 0
field sqrsum 0
attr interpolationmode none
attr recordingmode histogram
attr source packetLength(packetPulled)
attr title "outgoing packet lengths"
attr unit b
bin	-inf	0
bin	0	0
bin	1	0
statistic Aodvscratch.nodoFijo1.wlan[0].queue flowQueueingTime:histogram
field count 0
field mean nan
field stddev nan
field min nan
field max nan
field sum 0
field sqrsum 0
attr interpolationmode none
attr recordingmode histogram
attr source queueingTime(demuxFlow(packetPulled))
attr title "flow queueing times"
attr unit s
bin	-inf	0
bin	0	0
bin	1	0
scalar Aodvscratch.nodoFijo1.wlan[0].queue incomingPackets:count 0
attr recordingmode count
attr source packetPushStarted
attr title "incoming packets, count"
attr unit pk
scalar Aodvscratch.nodoFijo1.wlan[0].queue incomingPacketLengths:sum 0
attr interpolationmode none
attr recordingmode sum
attr source packetLength(packetPushStarted)
attr title "incoming packet lengths, sum"
attr unit b
statistic Aodvscratch.nodoFijo1.wlan[0].queue incomingPacketLengths:histogram
field count 0
field mean nan
field stddev nan
field min nan
field max nan
field sum 0
field sqrsum 0
attr interpolationmode none
attr recordingmode histogram
attr source packetLength(packetPushStarted)
attr title "incoming packet lengths"
attr unit b
bin	-inf	0
bin	0	0
bin	1	0
scalar Aodvscratch.nodoFijo1.wlan[0].queue droppedPacketsQueueOverflow:count 0
attr interpolationmode none
attr recordingmode count
attr source packetDropReasonIsQueueOverflow(packetDropped)
attr title "dropped packets: queue overflow, count"
attr unit pk
scalar Aodvscratch.nodoFijo1.wlan[0].queue droppedPacketLengthsQueueOverflow:sum 0
attr interpolationmode none
attr recordingmode sum
attr source packetLength(packetDropReasonIsQueueOverflow(packetDropped))
attr title "dropped packet lengths: queue overflow, sum"
attr unit b
par Aodvscratch.nodoFijo1.wlan[0].mac typename "\"inet.linklayer.acking.AckingMac\""
par Aodvscratch.nodoFijo1.wlan[0].mac interfaceTableModule "\"Aodvscratch.nodoFijo1.interfaceTable\""
par Aodvscratch.nodoFijo1.wlan[0].mac address "\"auto\""
attr mutable ""
par Aodvscratch.nodoFijo1.wlan[0].mac bitrate 2e+06bps
attr unit bps
par Aodvscratch.nodoFijo1.wlan[0].mac mtu 4470B
attr unit B
par Aodvscratch.nodoFijo1.wlan[0].mac headerLength 20B
attr unit B
par Aodvscratch.nodoFijo1.wlan[0].mac promiscuous false
par Aodvscratch.nodoFijo1.wlan[0].mac fullDuplex true
par Aodvscratch.nodoFijo1.wlan[0].mac useAck true
par Aodvscratch.nodoFijo1.wlan[0].mac ackTimeout 0.1s
attr unit s
scalar Aodvscratch.nodoFijo1.wlan[0].mac rcvdPkFromLl:count 0
attr interpolationmode none
attr recordingmode count
attr source packetReceivedFromLower
attr title "packets received from lower layer, count"
scalar Aodvscratch.nodoFijo1.wlan[0].mac rcvdPkFromLl:sum(packetBytes) 0
attr interpolationmode none
attr recordingmode sum(packetBytes)
attr source packetReceivedFromLower
attr title "packets received from lower layer, sum(packetBytes)"
scalar Aodvscratch.nodoFijo1.wlan[0].mac sentDownPk:count 0
attr interpolationmode none
attr recordingmode count
attr source packetSentToLower
attr title "packets sent to lower layer, count"
scalar Aodvscratch.nodoFijo1.wlan[0].mac sentDownPk:sum(packetBytes) 0
attr interpolationmode none
attr recordingmode sum(packetBytes)
attr source packetSentToLower
attr title "packets sent to lower layer, sum(packetBytes)"
scalar Aodvscratch.nodoFijo1.wlan[0].mac rcvdPkFromHl:count 0
attr interpolationmode none
attr recordingmode count
attr source packetReceivedFromUpper
attr title "packets received from higher layer, count"
scalar Aodvscratch.nodoFijo1.wlan[0].mac rcvdPkFromHl:sum(packetBytes) 0
attr interpolationmode none
attr recordingmode sum(packetBytes)
attr source packetReceivedFromUpper
attr title "packets received from higher layer, sum(packetBytes)"
scalar Aodvscratch.nodoFijo1.wlan[0].mac passedUpPk:count 0
attr interpolationmode none
attr recordingmode count
attr source packetSentToUpper
attr title "packets passed to higher layer, count"
scalar Aodvscratch.nodoFijo1.wlan[0].mac passedUpPk:sum(packetBytes) 0
attr interpolationmode none
attr recordingmode sum(packetBytes)
attr source packetSentToUpper
attr title "packets passed to higher layer, sum(packetBytes)"
scalar Aodvscratch.nodoFijo1.wlan[0].mac packetDropIncorrectlyReceived:count 0
attr interpolationmode none
attr recordingmode count
attr source packetDropReasonIsIncorrectlyReceived(packetDropped)
attr title "packet drop: incorrectly received, count"
scalar Aodvscratch.nodoFijo1.wlan[0].mac packetDropIncorrectlyReceived:sum(packetBytes) 0
attr interpolationmode none
attr recordingmode sum(packetBytes)
attr source packetDropReasonIsIncorrectlyReceived(packetDropped)
attr title "packet drop: incorrectly received, sum(packetBytes)"
scalar Aodvscratch.nodoFijo1.wlan[0].mac packetDropInterfaceDown:count 0
attr interpolationmode none
attr recordingmode count
attr source packetDropReasonIsInterfaceDown(packetDropped)
attr title "packet drop: interface down, count"
scalar Aodvscratch.nodoFijo1.wlan[0].mac packetDropInterfaceDown:sum(packetBytes) 0
attr interpolationmode none
attr recordingmode sum(packetBytes)
attr source packetDropReasonIsInterfaceDown(packetDropped)
attr title "packet drop: interface down, sum(packetBytes)"
scalar Aodvscratch.nodoFijo1.wlan[0].mac packetDropNotAddressedToUs:count 0
attr interpolationmode none
attr recordingmode count
attr source packetDropReasonIsNotAddressedToUs(packetDropped)
attr title "packet drop: not addressed to us, count"
scalar Aodvscratch.nodoFijo1.wlan[0].mac packetDropNotAddressedToUs:sum(packetBytes) 0
attr interpolationmode none
attr recordingmode sum(packetBytes)
attr source packetDropReasonIsNotAddressedToUs(packetDropped)
attr title "packet drop: not addressed to us, sum(packetBytes)"
scalar Aodvscratch.nodoFijo1.wlan[0].mac linkBroken:count 0
attr interpolationmode none
attr recordingmode count
attr source linkBroken
attr title "link break, count"
par Aodvscratch.nodoFijo1.wlan[0].radio.antenna typename "\"inet.physicallayer.wireless.common.antenna.IsotropicAntenna\""
par Aodvscratch.nodoFijo1.wlan[0].radio.antenna mobilityModule "\"^.^.^.mobility\""
par Aodvscratch.nodoFijo1.wlan[0].radio.antenna numAntennas 1
par Aodvscratch.nodoFijo1.wlan[0].radio.transmitter typename "\"inet.physicallayer.wireless.unitdisk.UnitDiskTransmitter\""
par Aodvscratch.nodoFijo1.wlan[0].radio.transmitter preambleDuration 0s
attr unit s
par Aodvscratch.nodoFijo1.wlan[0].radio.transmitter headerLength 96b
attr unit b
par Aodvscratch.nodoFijo1.wlan[0].radio.transmitter bitrate 2e+06bps
attr unit bps
par Aodvscratch.nodoFijo1.wlan[0].radio.transmitter communicationRange 400m
attr unit m
par Aodvscratch.nodoFijo1.wlan[0].radio.transmitter interferenceRange 0m
attr unit m
par Aodvscratch.nodoFijo1.wlan[0].radio.transmitter detectionRange 0m
attr unit m
par Aodvscratch.nodoFijo1.wlan[0].radio.receiver typename "\"inet.physicallayer.wireless.unitdisk.UnitDiskReceiver\""
par Aodvscratch.nodoFijo1.wlan[0].radio.receiver ignoreInterference true
par Aodvscratch.nodoFijo1.wlan[0].radio typename "\"inet.physicallayer.wireless.unitdisk.UnitDiskRadio\""
par Aodvscratch.nodoFijo1.wlan[0].radio radioMediumModule "\"radioMedium\""
par Aodvscratch.nodoFijo1.wlan[0].radio energySourceModule "\"\""
par Aodvscratch.nodoFijo1.wlan[0].radio initialRadioMode "\"off\""
attr enum off,sleep,receiver,transmitter,transceiver
par Aodvscratch.nodoFijo1.wlan[0].radio switchingTimes "\"ms 0 0 0 0 0 0 0 0 0 0 0 0 0 0 0 0 0 0 0 0 0 0 0 0 0\""
par Aodvscratch.nodoFijo1.wlan[0].radio sendRawBytes false
par Aodvscratch.nodoFijo1.wlan[0].radio separateTransmissionParts false
par Aodvscratch.nodoFijo1.wlan[0].radio separateReceptionParts false
par Aodvscratch.nodoFijo1.wlan[0].radio displayCommunicationRange false
par Aodvscratch.nodoFijo1.wlan[0].radio displayInterferenceRange false
statistic Aodvscratch.nodoFijo1.wlan[0].radio minSnir:histogram
field count 0
field mean nan
field stddev nan
field min nan
field max nan
field sum 0
field sqrsum 0
attr recordingmode histogram
attr source minimumSnir(packetSentToUpper)
attr title "Min SNIR"
bin	-inf	0
bin	0	0
bin	1	0
statistic Aodvscratch.nodoFijo1.wlan[0].radio packetErrorRate:histogram
field count 0
field mean nan
field stddev nan
field min nan
field max nan
field sum 0
field sqrsum 0
attr recordingmode histogram
attr source packetErrorRate(packetSentToUpper)
attr title "Packet error rate"
bin	-inf	0
bin	0	0
bin	1	0
statistic Aodvscratch.nodoFijo1.wlan[0].radio bitErrorRate:histogram
field count 0
field mean nan
field stddev nan
field min nan
field max nan
field sum 0
field sqrsum 0
attr recordingmode histogram
attr source bitErrorRate(packetSentToUpper)
attr title "Bit error rate"
bin	-inf	0
bin	0	0
bin	1	0
statistic Aodvscratch.nodoFijo1.wlan[0].radio symbolErrorRate:histogram
field count 0
field mean nan
field stddev nan
field min nan
field max nan
field sum 0
field sqrsum 0
attr recordingmode histogram
attr source symbolErrorRate(packetSentToUpper)
attr title "Symbol error rate"
bin	-inf	0
bin	0	0
bin	1	0
scalar Aodvscratch.nodoFijo1.wlan[0].radio transmissionState:count 1
attr interpolationmode sample-hold
attr recordingmode count
attr source transmissionStateChanged
attr title "Radio transmission state, count"
scalar Aodvscratch.nodoFijo1.wlan[0].radio receptionState:count 1
attr interpolationmode sample-hold
attr recordingmode count
attr source receptionStateChanged
attr title "Radio reception state, count"
scalar Aodvscratch.nodoFijo1.wlan[0].radio radioMode:count 3
attr interpolationmode sample-hold
attr recordingmode count
attr source radioModeChanged
attr title "Radio mode, count"
par Aodvscratch.nodoFijo1.wlan[0] typename "\"inet.linklayer.acking.AckingWirelessInterface\""
par Aodvscratch.nodoFijo1.wlan[0] displayStringTextFormat "\"%a (%i)\\n%m\""
par Aodvscratch.nodoFijo1.wlan[0] recordPcap false
par Aodvscratch.nodoFijo1.wlan[0] numPcapRecorders 0
par Aodvscratch.nodoFijo1.wlan[0] interfaceTableModule "\"Aodvscratch.nodoFijo1.interfaceTable\""
par Aodvscratch.nodoFijo1.wlan[0] energySourceModule "\"\""
par Aodvscratch.nodoFijo1.wlan[0] bitrate 2e+06bps
attr unit bps
scalar Aodvscratch.nodoFijo1.wlan[0] packetDropInterfaceDown:count 0
attr interpolationmode none
attr recordingmode count
attr source packetDropReasonIsInterfaceDown(packetDropped)
attr title "packet drops: interface down, count"
scalar Aodvscratch.nodoFijo1.wlan[0] packetDropInterfaceDown:sum(packetBytes) 0
attr interpolationmode none
attr recordingmode sum(packetBytes)
attr source packetDropReasonIsInterfaceDown(packetDropped)
attr title "packet drops: interface down, sum(packetBytes)"
scalar Aodvscratch.nodoFijo1.wlan[0] packetDropNoCarrier:count 0
attr interpolationmode none
attr recordingmode count
attr source packetDropReasonIsNoCarrier(packetDropped)
attr title "packet drops: no carrier, count"
scalar Aodvscratch.nodoFijo1.wlan[0] packetDropNoCarrier:sum(packetBytes) 0
attr interpolationmode none
attr recordingmode sum(packetBytes)
attr source packetDropReasonIsNoCarrier(packetDropped)
attr title "packet drops: no carrier, sum(packetBytes)"
par Aodvscratch.nodoFijo1.ipv4.transportIn.channel typename "\"ned.IdealChannel\""
par Aodvscratch.nodoFijo1.ipv4.up.out[0].channel typename "\"ned.IdealChannel\""
par Aodvscratch.nodoFijo1.ipv4.lp.out[2].channel typename "\"ned.IdealChannel\""
par Aodvscratch.nodoFijo1.ipv4.ifIn.channel typename "\"ned.IdealChannel\""
par Aodvscratch.nodoFijo1.ipv4.configurator typename "\"inet.networklayer.configurator.ipv4.Ipv4NodeConfigurator\""
par Aodvscratch.nodoFijo1.ipv4.configurator interfaceTableModule "\"Aodvscratch.nodoFijo1.interfaceTable\""
par Aodvscratch.nodoFijo1.ipv4.configurator routingTableModule "\"Aodvscratch.nodoFijo1.ipv4.routingTable\""
par Aodvscratch.nodoFijo1.ipv4.configurator networkConfiguratorModule "\"configurator\""
par Aodvscratch.nodoFijo1.ipv4.configurator configureRoutingTable true
par Aodvscratch.nodoFijo1.ipv4.routingTable typename "\"inet.networklayer.ipv4.Ipv4RoutingTable\""
par Aodvscratch.nodoFijo1.ipv4.routingTable interfaceTableModule "\"Aodvscratch.nodoFijo1.interfaceTable\""
par Aodvscratch.nodoFijo1.ipv4.routingTable routerId "\"auto\""
par Aodvscratch.nodoFijo1.ipv4.routingTable netmaskRoutes "\"*\""
par Aodvscratch.nodoFijo1.ipv4.routingTable forwarding true
par Aodvscratch.nodoFijo1.ipv4.routingTable multicastForwarding false
par Aodvscratch.nodoFijo1.ipv4.routingTable useAdminDist false
par Aodvscratch.nodoFijo1.ipv4.routingTable routingFile "\"\""
par Aodvscratch.nodoFijo1.ipv4.natTable typename "\"inet.networklayer.ipv4.Ipv4NatTable\""
par Aodvscratch.nodoFijo1.ipv4.natTable networkProtocolModule "\"^.ip\""
par Aodvscratch.nodoFijo1.ipv4.natTable config "<config/> at content:1"
par Aodvscratch.nodoFijo1.ipv4.up typename "\"inet.common.MessageDispatcher\""
par Aodvscratch.nodoFijo1.ipv4.up displayStringTextFormat "\"processed %p pk (%l)\""
par Aodvscratch.nodoFijo1.ipv4.up forwardServiceRegistration true
par Aodvscratch.nodoFijo1.ipv4.up forwardProtocolRegistration true
par Aodvscratch.nodoFijo1.ipv4.igmp typename "\"inet.networklayer.ipv4.Igmpv2\""
par Aodvscratch.nodoFijo1.ipv4.igmp interfaceTableModule "\"Aodvscratch.nodoFijo1.interfaceTable\""
par Aodvscratch.nodoFijo1.ipv4.igmp routingTableModule "\"Aodvscratch.nodoFijo1.ipv4.routingTable\""
par Aodvscratch.nodoFijo1.ipv4.igmp crcMode "\"declared\""
attr enum declared,computed
par Aodvscratch.nodoFijo1.ipv4.igmp enabled true
par Aodvscratch.nodoFijo1.ipv4.igmp robustnessVariable 2
par Aodvscratch.nodoFijo1.ipv4.igmp queryInterval 125s
attr unit s
par Aodvscratch.nodoFijo1.ipv4.igmp queryResponseInterval 10s
attr unit s
par Aodvscratch.nodoFijo1.ipv4.igmp groupMembershipInterval 260s
attr unit s
par Aodvscratch.nodoFijo1.ipv4.igmp otherQuerierPresentInterval 255s
attr unit s
par Aodvscratch.nodoFijo1.ipv4.igmp startupQueryInterval 31.25s
attr unit s
par Aodvscratch.nodoFijo1.ipv4.igmp startupQueryCount 2
par Aodvscratch.nodoFijo1.ipv4.igmp lastMemberQueryInterval 1s
attr unit s
par Aodvscratch.nodoFijo1.ipv4.igmp lastMemberQueryCount 2
par Aodvscratch.nodoFijo1.ipv4.igmp unsolicitedReportInterval 10s
attr unit s
par Aodvscratch.nodoFijo1.ipv4.icmp typename "\"inet.networklayer.ipv4.Icmp\""
par Aodvscratch.nodoFijo1.ipv4.icmp interfaceTableModule "\"Aodvscratch.nodoFijo1.interfaceTable\""
par Aodvscratch.nodoFijo1.ipv4.icmp routingTableModule "\"Aodvscratch.nodoFijo1.ipv4.routingTable\""
par Aodvscratch.nodoFijo1.ipv4.icmp crcMode "\"declared\""
attr enum declared,computed
attr mutable ""
par Aodvscratch.nodoFijo1.ipv4.icmp quoteLength 8B
attr mutable ""
attr unit B
par Aodvscratch.nodoFijo1.ipv4.mp typename "\"inet.common.MessageDispatcher\""
par Aodvscratch.nodoFijo1.ipv4.mp displayStringTextFormat "\"processed %p pk (%l)\""
par Aodvscratch.nodoFijo1.ipv4.mp forwardServiceRegistration true
par Aodvscratch.nodoFijo1.ipv4.mp forwardProtocolRegistration true
par Aodvscratch.nodoFijo1.ipv4.ip typename "\"inet.networklayer.ipv4.Ipv4\""
par Aodvscratch.nodoFijo1.ipv4.ip interfaceTableModule "\"Aodvscratch.nodoFijo1.interfaceTable\""
par Aodvscratch.nodoFijo1.ipv4.ip routingTableModule "\"Aodvscratch.nodoFijo1.ipv4.routingTable\""
par Aodvscratch.nodoFijo1.ipv4.ip arpModule "\"Aodvscratch.nodoFijo1.ipv4.arp\""
par Aodvscratch.nodoFijo1.ipv4.ip icmpModule "\"Aodvscratch.nodoFijo1.ipv4.icmp\""
par Aodvscratch.nodoFijo1.ipv4.ip crcMode "\"declared\""
attr enum declared,computed
par Aodvscratch.nodoFijo1.ipv4.ip timeToLive 32
par Aodvscratch.nodoFijo1.ipv4.ip multicastTimeToLive 32
par Aodvscratch.nodoFijo1.ipv4.ip fragmentTimeout 60s
attr unit s
par Aodvscratch.nodoFijo1.ipv4.ip limitedBroadcast false
par Aodvscratch.nodoFijo1.ipv4.ip directBroadcastInterfaces "\"\""
scalar Aodvscratch.nodoFijo1.ipv4.ip packetDropAddressResolutionFailed:count 0
attr interpolationmode none
attr recordingmode count
attr source packetDropReasonIsAddressResolutionFailed(packetDropped)
attr title "packet drop: address resolution failed, count"
scalar Aodvscratch.nodoFijo1.ipv4.ip packetDropAddressResolutionFailed:sum(packetBytes) 0
attr interpolationmode none
attr recordingmode sum(packetBytes)
attr source packetDropReasonIsAddressResolutionFailed(packetDropped)
attr title "packet drop: address resolution failed, sum(packetBytes)"
scalar Aodvscratch.nodoFijo1.ipv4.ip packetDropHopLimitReached:count 0
attr interpolationmode none
attr recordingmode count
attr source packetDropReasonIsHopLimitReached(packetDropped)
attr title "packet drop: hop limit reached, count"
scalar Aodvscratch.nodoFijo1.ipv4.ip packetDropHopLimitReached:sum(packetBytes) 0
attr interpolationmode none
[...]
par Aodvscratch.nodoMovil[6].wlan[0].radio typename "\"inet.physicallayer.wireless.unitdisk.UnitDiskRadio\""
par Aodvscratch.nodoMovil[6].wlan[0].radio radioMediumModule "\"radioMedium\""
par Aodvscratch.nodoMovil[6].wlan[0].radio energySourceModule "\"\""
par Aodvscratch.nodoMovil[6].wlan[0].radio initialRadioMode "\"off\""
attr enum off,sleep,receiver,transmitter,transceiver
par Aodvscratch.nodoMovil[6].wlan[0].radio switchingTimes "\"ms 0 0 0 0 0 0 0 0 0 0 0 0 0 0 0 0 0 0 0 0 0 0 0 0 0\""
par Aodvscratch.nodoMovil[6].wlan[0].radio sendRawBytes false
par Aodvscratch.nodoMovil[6].wlan[0].radio separateTransmissionParts false
par Aodvscratch.nodoMovil[6].wlan[0].radio separateReceptionParts false
par Aodvscratch.nodoMovil[6].wlan[0].radio displayCommunicationRange true
par Aodvscratch.nodoMovil[6].wlan[0].radio displayInterferenceRange false
statistic Aodvscratch.nodoMovil[6].wlan[0].radio minSnir:histogram
field count 0
field mean nan
field stddev nan
field min nan
field max nan
field sum 0
field sqrsum 0
attr recordingmode histogram
attr source minimumSnir(packetSentToUpper)
attr title "Min SNIR"
bin	-inf	0
bin	0	0
bin	1	0
statistic Aodvscratch.nodoMovil[6].wlan[0].radio packetErrorRate:histogram
field count 0
field mean nan
field stddev nan
field min nan
field max nan
field sum 0
field sqrsum 0
attr recordingmode histogram
attr source packetErrorRate(packetSentToUpper)
attr title "Packet error rate"
bin	-inf	0
bin	0	0
bin	1	0
statistic Aodvscratch.nodoMovil[6].wlan[0].radio bitErrorRate:histogram
field count 0
field mean nan
field stddev nan
field min nan
field max nan
field sum 0
field sqrsum 0
attr recordingmode histogram
attr source bitErrorRate(packetSentToUpper)
attr title "Bit error rate"
bin	-inf	0
bin	0	0
bin	1	0
statistic Aodvscratch.nodoMovil[6].wlan[0].radio symbolErrorRate:histogram
field count 0
field mean nan
field stddev nan
field min nan
field max nan
field sum 0
field sqrsum 0
attr recordingmode histogram
attr source symbolErrorRate(packetSentToUpper)
attr title "Symbol error rate"
bin	-inf	0
bin	0	0
bin	1	0
scalar Aodvscratch.nodoMovil[6].wlan[0].radio transmissionState:count 1
attr interpolationmode sample-hold
attr recordingmode count
attr source transmissionStateChanged
attr title "Radio transmission state, count"
scalar Aodvscratch.nodoMovil[6].wlan[0].radio receptionState:count 1
attr interpolationmode sample-hold
attr recordingmode count
attr source receptionStateChanged
attr title "Radio reception state, count"
scalar Aodvscratch.nodoMovil[6].wlan[0].radio radioMode:count 3
attr interpolationmode sample-hold
attr recordingmode count
attr source radioModeChanged
attr title "Radio mode, count"
par Aodvscratch.nodoMovil[6].wlan[0] typename "\"inet.linklayer.acking.AckingWirelessInterface\""
par Aodvscratch.nodoMovil[6].wlan[0] displayStringTextFormat "\"%a (%i)\\n%m\""
par Aodvscratch.nodoMovil[6].wlan[0] recordPcap false
par Aodvscratch.nodoMovil[6].wlan[0] numPcapRecorders 0
par Aodvscratch.nodoMovil[6].wlan[0] interfaceTableModule "\"Aodvscratch.nodoMovil[6].interfaceTable\""
par Aodvscratch.nodoMovil[6].wlan[0] energySourceModule "\"\""
par Aodvscratch.nodoMovil[6].wlan[0] bitrate 2e+06bps
attr unit bps
scalar Aodvscratch.nodoMovil[6].wlan[0] packetDropInterfaceDown:count 0
attr interpolationmode none
attr recordingmode count
attr source packetDropReasonIsInterfaceDown(packetDropped)
attr title "packet drops: interface down, count"
scalar Aodvscratch.nodoMovil[6].wlan[0] packetDropInterfaceDown:sum(packetBytes) 0
attr interpolationmode none
attr recordingmode sum(packetBytes)
attr source packetDropReasonIsInterfaceDown(packetDropped)
attr title "packet drops: interface down, sum(packetBytes)"
scalar Aodvscratch.nodoMovil[6].wlan[0] packetDropNoCarrier:count 0
attr interpolationmode none
attr recordingmode count
attr source packetDropReasonIsNoCarrier(packetDropped)
attr title "packet drops: no carrier, count"
scalar Aodvscratch.nodoMovil[6].wlan[0] packetDropNoCarrier:sum(packetBytes) 0
attr interpolationmode none
attr recordingmode sum(packetBytes)
attr source packetDropReasonIsNoCarrier(packetDropped)
attr title "packet drops: no carrier, sum(packetBytes)"
par Aodvscratch.nodoMovil[6].ipv4.transportIn.channel typename "\"ned.IdealChannel\""
par Aodvscratch.nodoMovil[6].ipv4.up.out[0].channel typename "\"ned.IdealChannel\""
par Aodvscratch.nodoMovil[6].ipv4.lp.out[2].channel typename "\"ned.IdealChannel\""
par Aodvscratch.nodoMovil[6].ipv4.ifIn.channel typename "\"ned.IdealChannel\""
par Aodvscratch.nodoMovil[6].ipv4.configurator typename "\"inet.networklayer.configurator.ipv4.Ipv4NodeConfigurator\""
par Aodvscratch.nodoMovil[6].ipv4.configurator interfaceTableModule "\"Aodvscratch.nodoMovil[6].interfaceTable\""
par Aodvscratch.nodoMovil[6].ipv4.configurator routingTableModule "\"Aodvscratch.nodoMovil[6].ipv4.routingTable\""
par Aodvscratch.nodoMovil[6].ipv4.configurator networkConfiguratorModule "\"configurator\""
par Aodvscratch.nodoMovil[6].ipv4.configurator configureRoutingTable true
par Aodvscratch.nodoMovil[6].ipv4.routingTable typename "\"inet.networklayer.ipv4.Ipv4RoutingTable\""
par Aodvscratch.nodoMovil[6].ipv4.routingTable interfaceTableModule "\"Aodvscratch.nodoMovil[6].interfaceTable\""
par Aodvscratch.nodoMovil[6].ipv4.routingTable routerId "\"auto\""
par Aodvscratch.nodoMovil[6].ipv4.routingTable netmaskRoutes "\"*\""
par Aodvscratch.nodoMovil[6].ipv4.routingTable forwarding true
par Aodvscratch.nodoMovil[6].ipv4.routingTable multicastForwarding false
par Aodvscratch.nodoMovil[6].ipv4.routingTable useAdminDist false
par Aodvscratch.nodoMovil[6].ipv4.routingTable routingFile "\"\""
par Aodvscratch.nodoMovil[6].ipv4.natTable typename "\"inet.networklayer.ipv4.Ipv4NatTable\""
par Aodvscratch.nodoMovil[6].ipv4.natTable networkProtocolModule "\"^.ip\""
par Aodvscratch.nodoMovil[6].ipv4.natTable config "<config/> at content:1"
par Aodvscratch.nodoMovil[6].ipv4.up typename "\"inet.common.MessageDispatcher\""
par Aodvscratch.nodoMovil[6].ipv4.up displayStringTextFormat "\"processed %p pk (%l)\""
par Aodvscratch.nodoMovil[6].ipv4.up forwardServiceRegistration true
par Aodvscratch.nodoMovil[6].ipv4.up forwardProtocolRegistration true
par Aodvscratch.nodoMovil[6].ipv4.igmp typename "\"inet.networklayer.ipv4.Igmpv2\""
par Aodvscratch.nodoMovil[6].ipv4.igmp interfaceTableModule "\"Aodvscratch.nodoMovil[6].interfaceTable\""
par Aodvscratch.nodoMovil[6].ipv4.igmp routingTableModule "\"Aodvscratch.nodoMovil[6].ipv4.routingTable\""
par Aodvscratch.nodoMovil[6].ipv4.igmp crcMode "\"declared\""
attr enum declared,computed
par Aodvscratch.nodoMovil[6].ipv4.igmp enabled true
par Aodvscratch.nodoMovil[6].ipv4.igmp robustnessVariable 2
par Aodvscratch.nodoMovil[6].ipv4.igmp queryInterval 125s
attr unit s
par Aodvscratch.nodoMovil[6].ipv4.igmp queryResponseInterval 10s
attr unit s
par Aodvscratch.nodoMovil[6].ipv4.igmp groupMembershipInterval 260s
attr unit s
par Aodvscratch.nodoMovil[6].ipv4.igmp otherQuerierPresentInterval 255s
attr unit s
par Aodvscratch.nodoMovil[6].ipv4.igmp startupQueryInterval 31.25s
attr unit s
par Aodvscratch.nodoMovil[6].ipv4.igmp startupQueryCount 2
par Aodvscratch.nodoMovil[6].ipv4.igmp lastMemberQueryInterval 1s
attr unit s
par Aodvscratch.nodoMovil[6].ipv4.igmp lastMemberQueryCount 2
par Aodvscratch.nodoMovil[6].ipv4.igmp unsolicitedReportInterval 10s
attr unit s
par Aodvscratch.nodoMovil[6].ipv4.icmp typename "\"inet.networklayer.ipv4.Icmp\""
par Aodvscratch.nodoMovil[6].ipv4.icmp interfaceTableModule "\"Aodvscratch.nodoMovil[6].interfaceTable\""
par Aodvscratch.nodoMovil[6].ipv4.icmp routingTableModule "\"Aodvscratch.nodoMovil[6].ipv4.routingTable\""
par Aodvscratch.nodoMovil[6].ipv4.icmp crcMode "\"declared\""
attr enum declared,computed
attr mutable ""
par Aodvscratch.nodoMovil[6].ipv4.icmp quoteLength 8B
attr mutable ""
attr unit B
par Aodvscratch.nodoMovil[6].ipv4.mp typename "\"inet.common.MessageDispatcher\""
par Aodvscratch.nodoMovil[6].ipv4.mp displayStringTextFormat "\"processed %p pk (%l)\""
par Aodvscratch.nodoMovil[6].ipv4.mp forwardServiceRegistration true
par Aodvscratch.nodoMovil[6].ipv4.mp forwardProtocolRegistration true
par Aodvscratch.nodoMovil[6].ipv4.ip typename "\"inet.networklayer.ipv4.Ipv4\""
par Aodvscratch.nodoMovil[6].ipv4.ip interfaceTableModule "\"Aodvscratch.nodoMovil[6].interfaceTable\""
par Aodvscratch.nodoMovil[6].ipv4.ip routingTableModule "\"Aodvscratch.nodoMovil[6].ipv4.routingTable\""
par Aodvscratch.nodoMovil[6].ipv4.ip arpModule "\"Aodvscratch.nodoMovil[6].ipv4.arp\""
par Aodvscratch.nodoMovil[6].ipv4.ip icmpModule "\"Aodvscratch.nodoMovil[6].ipv4.icmp\""
par Aodvscratch.nodoMovil[6].ipv4.ip crcMode "\"declared\""
attr enum declared,computed
par Aodvscratch.nodoMovil[6].ipv4.ip timeToLive 32
par Aodvscratch.nodoMovil[6].ipv4.ip multicastTimeToLive 32
par Aodvscratch.nodoMovil[6].ipv4.ip fragmentTimeout 60s
attr unit s
par Aodvscratch.nodoMovil[6].ipv4.ip limitedBroadcast false
par Aodvscratch.nodoMovil[6].ipv4.ip directBroadcastInterfaces "\"\""
scalar Aodvscratch.nodoMovil[6].ipv4.ip packetDropAddressResolutionFailed:count 0
attr interpolationmode none
attr recordingmode count
attr source packetDropReasonIsAddressResolutionFailed(packetDropped)
attr title "packet drop: address resolution failed, count"
scalar Aodvscratch.nodoMovil[6].ipv4.ip packetDropAddressResolutionFailed:sum(packetBytes) 0
attr interpolationmode none
attr recordingmode sum(packetBytes)
attr source packetDropReasonIsAddressResolutionFailed(packetDropped)
attr title "packet drop: address resolution failed, sum(packetBytes)"
scalar Aodvscratch.nodoMovil[6].ipv4.ip packetDropHopLimitReached:count 0
attr interpolationmode none
attr recordingmode count
attr source packetDropReasonIsHopLimitReached(packetDropped)
attr title "packet drop: hop limit reached, count"
scalar Aodvscratch.nodoMovil[6].ipv4.ip packetDropHopLimitReached:sum(packetBytes) 0
attr interpolationmode none
attr recordingmode sum(packetBytes)
attr source packetDropReasonIsHopLimitReached(packetDropped)
attr title "packet drop: hop limit reached, sum(packetBytes)"
scalar Aodvscratch.nodoMovil[6].ipv4.ip packetDropForwardingDisabled:count 0
attr interpolationmode none
attr recordingmode count
attr source packetDropReasonIsForwardingDisabled(packetDropped)
attr title "packet drop: forwarding disabled, count"
scalar Aodvscratch.nodoMovil[6].ipv4.ip packetDropForwardingDisabled:sum(packetBytes) 0
attr interpolationmode none
attr recordingmode sum(packetBytes)
attr source packetDropReasonIsForwardingDisabled(packetDropped)
attr title "packet drop: forwarding disabled, sum(packetBytes)"
scalar Aodvscratch.nodoMovil[6].ipv4.ip packetDropNoInterfaceFound:count 0
attr interpolationmode none
attr recordingmode count
attr source packetDropReasonIsNoInterfaceFound(packetDropped)
attr title "packet drop: no interface found, count"
scalar Aodvscratch.nodoMovil[6].ipv4.ip packetDropNoInterfaceFound:sum(packetBytes) 0
attr interpolationmode none
attr recordingmode sum(packetBytes)
attr source packetDropReasonIsNoInterfaceFound(packetDropped)
attr title "packet drop: no interface found, sum(packetBytes)"
scalar Aodvscratch.nodoMovil[6].ipv4.ip packetDropNoRouteFound:count 0
attr interpolationmode none
attr recordingmode count
attr source packetDropReasonIsNoRouteFound(packetDropped)
attr title "packet drop: no route found, count"
scalar Aodvscratch.nodoMovil[6].ipv4.ip packetDropNoRouteFound:sum(packetBytes) 0
attr interpolationmode none
attr recordingmode sum(packetBytes)
attr source packetDropReasonIsNoRouteFound(packetDropped)
attr title "packet drop: no route found, sum(packetBytes)"
scalar Aodvscratch.nodoMovil[6].ipv4.ip packetDropUndefined:count 0
attr interpolationmode none
attr recordingmode count
attr source packetDropReasonIsUndefined(packetDropped)
attr title "packet drop: undefined, count"
scalar Aodvscratch.nodoMovil[6].ipv4.ip packetDropUndefined:sum(packetBytes) 0
attr interpolationmode none
attr recordingmode sum(packetBytes)
attr source packetDropReasonIsUndefined(packetDropped)
attr title "packet drop: undefined, sum(packetBytes)"
par Aodvscratch.nodoMovil[6].ipv4.arp typename "\"inet.networklayer.arp.ipv4.Arp\""
par Aodvscratch.nodoMovil[6].ipv4.arp interfaceTableModule "\"Aodvscratch.nodoMovil[6].interfaceTable\""
par Aodvscratch.nodoMovil[6].ipv4.arp routingTableModule "\"Aodvscratch.nodoMovil[6].ipv4.routingTable\""
par Aodvscratch.nodoMovil[6].ipv4.arp retryTimeout 1s
attr unit s
par Aodvscratch.nodoMovil[6].ipv4.arp retryCount 3
par Aodvscratch.nodoMovil[6].ipv4.arp cacheTimeout 120s
attr unit s
par Aodvscratch.nodoMovil[6].ipv4.arp proxyArpInterfaces "\"\""
scalar Aodvscratch.nodoMovil[6].ipv4.arp arpReplySent:count 0
attr recordingmode count
attr source arpReplySent
attr title "ARP replies sent, count"
scalar Aodvscratch.nodoMovil[6].ipv4.arp arpReplySent:sum(packetBytes) 0
attr recordingmode sum(packetBytes)
attr source arpReplySent
attr title "ARP replies sent, sum(packetBytes)"
scalar Aodvscratch.nodoMovil[6].ipv4.arp arpRequestSent:count 0
attr recordingmode count
attr source arpRequestSent
attr title "ARP request sent, count"
scalar Aodvscratch.nodoMovil[6].ipv4.arp arpRequestSent:sum(packetBytes) 0
attr recordingmode sum(packetBytes)
attr source arpRequestSent
attr title "ARP request sent, sum(packetBytes)"
scalar Aodvscratch.nodoMovil[6].ipv4.arp arpResolutionFailed:count 0
attr recordingmode count
attr title "ARP failed resolutions, count"
scalar Aodvscratch.nodoMovil[6].ipv4.arp arpResolutionCompleted:count 0
attr recordingmode count
attr title "ARP completed resolutions, count"
scalar Aodvscratch.nodoMovil[6].ipv4.arp arpResolutionInitiated:count 0
attr recordingmode count
attr title "ARP initiated resolutions, count"
par Aodvscratch.nodoMovil[6].ipv4.lp typename "\"inet.common.MessageDispatcher\""
par Aodvscratch.nodoMovil[6].ipv4.lp displayStringTextFormat "\"processed %p pk (%l)\""
par Aodvscratch.nodoMovil[6].ipv4.lp forwardServiceRegistration true
par Aodvscratch.nodoMovil[6].ipv4.lp forwardProtocolRegistration true
par Aodvscratch.nodoMovil[6].ipv4 typename "\"inet.networklayer.ipv4.Ipv4NetworkLayer\""
par Aodvscratch.nodoMovil[6].ipv4 forwarding true
par Aodvscratch.nodoMovil[6].ipv4 multicastForwarding false
par Aodvscratch.nodoMovil[6].ipv4 interfaceTableModule "\"Aodvscratch.nodoMovil[6].interfaceTable\""
par Aodvscratch.nodoMovil[6].ipv4 displayStringTextFormat "\"%i\""
par Aodvscratch.nodoMovil[6].nl typename "\"inet.common.MessageDispatcher\""
par Aodvscratch.nodoMovil[6].nl displayStringTextFormat "\"processed %p pk (%l)\""
par Aodvscratch.nodoMovil[6].nl forwardServiceRegistration true
par Aodvscratch.nodoMovil[6].nl forwardProtocolRegistration true
par Aodvscratch.nodoMovil[6].udp typename "\"inet.transportlayer.udp.Udp\""
par Aodvscratch.nodoMovil[6].udp interfaceTableModule "\"Aodvscratch.nodoMovil[6].interfaceTable\""
par Aodvscratch.nodoMovil[6].udp icmpModule "\"^.ipv4.icmp\""
par Aodvscratch.nodoMovil[6].udp icmpv6Module "\"^.ipv6.icmpv6\""
par Aodvscratch.nodoMovil[6].udp crcMode "\"declared\""
attr enum disabled,declared,computed
par Aodvscratch.nodoMovil[6].udp defaultMulticastLoop true
scalar Aodvscratch.nodoMovil[6].udp packetReceived:count 0
attr interpolationmode none
attr recordingmode count
attr source packetReceived
attr title "packets received, count"
scalar Aodvscratch.nodoMovil[6].udp packetReceived:sum(packetBytes) 0
attr interpolationmode none
attr recordingmode sum(packetBytes)
attr source packetReceived
attr title "packets received, sum(packetBytes)"
scalar Aodvscratch.nodoMovil[6].udp packetSent:count 0
attr interpolationmode none
attr recordingmode count
attr source packetSent
attr title "packets sent, count"
scalar Aodvscratch.nodoMovil[6].udp packetSent:sum(packetBytes) 0
attr interpolationmode none
attr recordingmode sum(packetBytes)
attr source packetSent
attr title "packets sent, sum(packetBytes)"
scalar Aodvscratch.nodoMovil[6].udp passedUpPk:count 0
attr interpolationmode none
attr recordingmode count
attr source packetSentToUpper
attr title "packets passed up, count"
scalar Aodvscratch.nodoMovil[6].udp droppedPkWrongPort:count 0
attr interpolationmode none
attr recordingmode count
attr source packetDropReasonIsNoPortFound(packetDropped)
attr title "packets dropped (wrong port), count"
scalar Aodvscratch.nodoMovil[6].udp droppedPkBadChecksum:count 0
attr interpolationmode none
attr recordingmode count
attr source packetDropReasonIsIncorrectlyReceived(packetDropped)
attr title "packets dropped (checksum error), count"
par Aodvscratch.nodoMovil[6].tcp typename "\"inet.transportlayer.tcp.Tcp\""
par Aodvscratch.nodoMovil[6].tcp crcMode "\"declared\""
attr enum declared,computed
par Aodvscratch.nodoMovil[6].tcp advertisedWindow 7504
par Aodvscratch.nodoMovil[6].tcp delayedAcksEnabled false
par Aodvscratch.nodoMovil[6].tcp nagleEnabled true
par Aodvscratch.nodoMovil[6].tcp limitedTransmitEnabled false
par Aodvscratch.nodoMovil[6].tcp increasedIWEnabled false
par Aodvscratch.nodoMovil[6].tcp sackSupport false
par Aodvscratch.nodoMovil[6].tcp windowScalingSupport false
par Aodvscratch.nodoMovil[6].tcp windowScalingFactor -1
par Aodvscratch.nodoMovil[6].tcp timestampSupport false
par Aodvscratch.nodoMovil[6].tcp mss 536
par Aodvscratch.nodoMovil[6].tcp msl 120s
attr unit s
par Aodvscratch.nodoMovil[6].tcp tcpAlgorithmClass "\"TcpReno\""
par Aodvscratch.nodoMovil[6].tcp useDataNotification false
par Aodvscratch.nodoMovil[6].tcp dupthresh 3
par Aodvscratch.nodoMovil[6].tcp initialSsthresh 4294967295
par Aodvscratch.nodoMovil[6].tcp stopOperationExtraTime 0s
attr unit s
par Aodvscratch.nodoMovil[6].tcp stopOperationTimeout 2s
attr unit s
par Aodvscratch.nodoMovil[6].tcp ecnWillingness false
par Aodvscratch.nodoMovil[6].tcp dctcpGamma 0.0625
par Aodvscratch.nodoMovil[6].tn typename "\"inet.common.MessageDispatcher\""
par Aodvscratch.nodoMovil[6].tn displayStringTextFormat "\"processed %p pk (%l)\""
par Aodvscratch.nodoMovil[6].tn forwardServiceRegistration true
par Aodvscratch.nodoMovil[6].tn forwardProtocolRegistration true
par Aodvscratch.nodoMovil[6].at typename "\"inet.common.MessageDispatcher\""
par Aodvscratch.nodoMovil[6].at displayStringTextFormat "\"processed %p pk (%l)\""
par Aodvscratch.nodoMovil[6].at forwardServiceRegistration true
par Aodvscratch.nodoMovil[6].at forwardProtocolRegistration true
par Aodvscratch.nodoMovil[6] typename "\"inet.node.inet.ManetRouter\""
par Aodvscratch.nodoMovil[6] hasStatus false
par Aodvscratch.nodoMovil[6] osgModel "\"\""
par Aodvscratch.nodoMovil[6] osgModelColor "\"\""
par Aodvscratch.nodoMovil[6] canvasImage "\"\""
par Aodvscratch.nodoMovil[6] canvasImageColor "\"\""
par Aodvscratch.nodoMovil[6] recordPcap false
par Aodvscratch.nodoMovil[6] numPcapRecorders 0
par Aodvscratch.nodoMovil[6] numLoInterfaces 1
par Aodvscratch.nodoMovil[6] numWlanInterfaces 1
par Aodvscratch.nodoMovil[6] numEthInterfaces 0
par Aodvscratch.nodoMovil[6] numPppInterfaces 0
par Aodvscratch.nodoMovil[6] numTunInterfaces 0
par Aodvscratch.nodoMovil[6] numVirtInterfaces 0
par Aodvscratch.nodoMovil[6] fcsMode "\"declared\""
attr enum declared,computed
par Aodvscratch.nodoMovil[6] hasIpv4 true
par Aodvscratch.nodoMovil[6] hasIpv6 false
par Aodvscratch.nodoMovil[6] hasGn false
par Aodvscratch.nodoMovil[6] forwarding true
par Aodvscratch.nodoMovil[6] multicastForwarding false
par Aodvscratch.nodoMovil[6] hasUdp true
par Aodvscratch.nodoMovil[6] hasTcp true
par Aodvscratch.nodoMovil[6] hasSctp false
par Aodvscratch.nodoMovil[6] numApps 0
par Aodvscratch typename "\"inet.examples.Practica4.Aodvscratch\""
par Aodvscratch n 7

